<?xml version="1.0" encoding="UTF-8"?>

<!-- generated on 2023-03-03 15:03:06 by Eclipse SUMO netconvert Version 1.10.0
<configuration xmlns:xsi="http://www.w3.org/2001/XMLSchema-instance" xsi:noNamespaceSchemaLocation="http://sumo.dlr.de/xsd/netconvertConfiguration.xsd">

    <input>
        <type-files value="D:\veins\Eclipse\Sumo\data\typemap\osmNetconvert.typ.xml"/>
        <osm-files value="osm_bbox.osm.xml"/>
    </input>

    <output>
        <output-file value="osm.net.xml"/>
        <output.street-names value="true"/>
        <output.original-names value="true"/>
    </output>

    <projection>
        <proj.utm value="true"/>
    </projection>

    <processing>
        <geometry.remove value="true"/>
        <roundabouts.guess value="true"/>
    </processing>

    <tls_building>
        <tls.discard-simple value="true"/>
        <tls.join value="true"/>
        <tls.guess-signals value="true"/>
        <tls.default-type value="actuated"/>
    </tls_building>

    <ramp_guessing>
        <ramps.guess value="true"/>
    </ramp_guessing>

    <edge_removal>
        <keep-edges.by-vclass value="passenger"/>
    </edge_removal>

    <junctions>
        <junctions.join value="true"/>
        <junctions.corner-detail value="5"/>
    </junctions>

    <report>
        <verbose value="true"/>
        <aggregate-warnings value="5"/>
    </report>

</configuration>
-->

<net version="1.9" junctionCornerDetail="5" limitTurnSpeed="5.50" xmlns:xsi="http://www.w3.org/2001/XMLSchema-instance" xsi:noNamespaceSchemaLocation="http://sumo.dlr.de/xsd/net_file.xsd">

    <location netOffset="-288314.88,-5077633.23" convBoundary="0.00,0.00,9158.25,1639.20" origBoundary="126.274536,45.784810,126.446902,45.841769" projParameter="+proj=utm +zone=52 +ellps=WGS84 +datum=WGS84 +units=m +no_defs"/>

    <type id="highway.bridleway" priority="1" numLanes="1" speed="2.78" allow="pedestrian" oneway="1" width="2.00"/>
    <type id="highway.bus_guideway" priority="1" numLanes="1" speed="27.78" allow="bus" oneway="1"/>
    <type id="highway.cycleway" priority="1" numLanes="1" speed="8.33" allow="bicycle" oneway="0" width="1.00"/>
    <type id="highway.footway" priority="1" numLanes="1" speed="2.78" allow="pedestrian" oneway="1" width="2.00"/>
    <type id="highway.ford" priority="1" numLanes="1" speed="2.78" allow="army" oneway="0"/>
    <type id="highway.living_street" priority="2" numLanes="1" speed="2.78" disallow="tram rail_urban rail rail_electric rail_fast ship" oneway="0"/>
    <type id="highway.motorway" priority="14" numLanes="2" speed="39.44" allow="private emergency authority army vip passenger hov taxi bus coach delivery truck trailer motorcycle evehicle custom1 custom2" oneway="1"/>
    <type id="highway.motorway_link" priority="9" numLanes="1" speed="22.22" allow="private emergency authority army vip passenger hov taxi bus coach delivery truck trailer motorcycle evehicle custom1 custom2" oneway="1"/>
    <type id="highway.path" priority="1" numLanes="1" speed="2.78" allow="pedestrian bicycle" oneway="0" width="2.00"/>
    <type id="highway.pedestrian" priority="1" numLanes="1" speed="2.78" allow="pedestrian" oneway="1" width="2.00"/>
    <type id="highway.primary" priority="12" numLanes="2" speed="27.78" disallow="tram rail_urban rail rail_electric rail_fast ship" oneway="0"/>
    <type id="highway.primary_link" priority="7" numLanes="1" speed="22.22" disallow="tram rail_urban rail rail_electric rail_fast ship" oneway="0"/>
    <type id="highway.raceway" priority="15" numLanes="2" speed="83.33" allow="vip" oneway="0"/>
    <type id="highway.residential" priority="3" numLanes="1" speed="13.89" disallow="tram rail_urban rail rail_electric rail_fast ship" oneway="0"/>
    <type id="highway.secondary" priority="11" numLanes="1" speed="27.78" disallow="tram rail_urban rail rail_electric rail_fast ship" oneway="0"/>
    <type id="highway.secondary_link" priority="6" numLanes="1" speed="22.22" disallow="tram rail_urban rail rail_electric rail_fast ship" oneway="0"/>
    <type id="highway.service" priority="1" numLanes="1" speed="5.56" allow="pedestrian delivery bicycle" oneway="0"/>
    <type id="highway.stairs" priority="1" numLanes="1" speed="1.39" allow="pedestrian" oneway="1" width="2.00"/>
    <type id="highway.step" priority="1" numLanes="1" speed="1.39" allow="pedestrian" oneway="1" width="2.00"/>
    <type id="highway.steps" priority="1" numLanes="1" speed="1.39" allow="pedestrian" oneway="1" width="2.00"/>
    <type id="highway.tertiary" priority="10" numLanes="1" speed="22.22" disallow="tram rail_urban rail rail_electric rail_fast ship" oneway="0"/>
    <type id="highway.tertiary_link" priority="5" numLanes="1" speed="22.22" disallow="tram rail_urban rail rail_electric rail_fast ship" oneway="0"/>
    <type id="highway.track" priority="1" numLanes="1" speed="5.56" allow="pedestrian motorcycle moped bicycle" oneway="0"/>
    <type id="highway.trunk" priority="13" numLanes="2" speed="27.78" disallow="pedestrian bicycle tram rail_urban rail rail_electric rail_fast ship" oneway="0"/>
    <type id="highway.trunk_link" priority="8" numLanes="1" speed="22.22" disallow="pedestrian bicycle tram rail_urban rail rail_electric rail_fast ship" oneway="0"/>
    <type id="highway.unclassified" priority="4" numLanes="1" speed="13.89" disallow="tram rail_urban rail rail_electric rail_fast ship" oneway="0"/>
    <type id="highway.unsurfaced" priority="1" numLanes="1" speed="8.33" disallow="tram rail_urban rail rail_electric rail_fast ship" oneway="0"/>
    <type id="railway.highspeed" priority="21" numLanes="1" speed="69.44" allow="rail_fast" oneway="1"/>
    <type id="railway.light_rail" priority="19" numLanes="1" speed="27.78" allow="rail_urban" oneway="1"/>
    <type id="railway.preserved" priority="16" numLanes="1" speed="27.78" allow="rail" oneway="1"/>
    <type id="railway.rail" priority="20" numLanes="1" speed="44.44" allow="rail" oneway="1"/>
    <type id="railway.subway" priority="18" numLanes="1" speed="27.78" allow="rail_urban" oneway="1"/>
    <type id="railway.tram" priority="17" numLanes="1" speed="13.89" allow="tram" oneway="1"/>

    <edge id=":10075081591_0" function="internal">
        <lane id=":10075081591_0_0" index="0" allow="private emergency authority army vip passenger hov taxi bus coach delivery truck trailer motorcycle evehicle custom1 custom2" speed="39.44" length="2.82" shape="4669.80,867.65 4667.12,868.27"/>
        <lane id=":10075081591_0_1" index="1" allow="private emergency authority army vip passenger hov taxi bus coach delivery truck trailer motorcycle evehicle custom1 custom2" speed="39.44" length="2.82" shape="4669.16,864.52 4666.34,865.16"/>
    </edge>
    <edge id=":10075081591_2" function="internal">
        <lane id=":10075081591_2_0" index="0" allow="private emergency authority army vip passenger hov taxi bus coach delivery truck trailer motorcycle evehicle custom1 custom2" speed="39.44" length="3.09" shape="4668.51,861.39 4665.55,862.00"/>
        <lane id=":10075081591_2_1" index="1" allow="private emergency authority army vip passenger hov taxi bus coach delivery truck trailer motorcycle evehicle custom1 custom2" speed="39.44" length="3.09" shape="4667.87,858.25 4664.77,858.89"/>
    </edge>
    <edge id=":10075091932_0" function="internal">
        <lane id=":10075091932_0_0" index="0" allow="private emergency authority army vip passenger hov taxi bus coach delivery truck trailer motorcycle evehicle custom1 custom2" speed="39.44" length="3.00" shape="4898.31,791.48 4901.25,790.93"/>
        <lane id=":10075091932_0_1" index="1" allow="private emergency authority army vip passenger hov taxi bus coach delivery truck trailer motorcycle evehicle custom1 custom2" speed="39.44" length="3.00" shape="4898.95,794.62 4901.90,794.06"/>
    </edge>
    <edge id=":10075091932_2" function="internal">
        <lane id=":10075091932_2_0" index="0" allow="private emergency authority army vip passenger hov taxi bus coach delivery truck trailer motorcycle evehicle custom1 custom2" speed="39.44" length="3.00" shape="4899.61,797.80 4902.54,797.20"/>
        <lane id=":10075091932_2_1" index="1" allow="private emergency authority army vip passenger hov taxi bus coach delivery truck trailer motorcycle evehicle custom1 custom2" speed="39.44" length="3.00" shape="4900.25,800.94 4903.19,800.33"/>
    </edge>
    <edge id=":10075091933_0" function="internal">
        <lane id=":10075091933_0_0" index="0" allow="private emergency authority army vip passenger hov taxi bus coach delivery truck trailer motorcycle evehicle custom1 custom2" speed="39.44" length="3.12" shape="4327.56,910.44 4330.62,909.70"/>
        <lane id=":10075091933_0_1" index="1" allow="private emergency authority army vip passenger hov taxi bus coach delivery truck trailer motorcycle evehicle custom1 custom2" speed="39.44" length="3.12" shape="4328.33,913.54 4331.35,912.82"/>
    </edge>
    <edge id=":10075091933_2" function="internal">
        <lane id=":10075091933_2_0" index="0" allow="private emergency authority army vip passenger hov taxi bus coach delivery truck trailer motorcycle evehicle custom1 custom2" speed="39.44" length="3.04" shape="4329.10,916.65 4332.07,915.92"/>
        <lane id=":10075091933_2_1" index="1" allow="private emergency authority army vip passenger hov taxi bus coach delivery truck trailer motorcycle evehicle custom1 custom2" speed="39.44" length="3.04" shape="4329.87,919.76 4332.80,919.03"/>
    </edge>
    <edge id=":10075091960_0" function="internal">
        <lane id=":10075091960_0_0" index="0" allow="private emergency authority army vip passenger hov taxi bus coach delivery truck trailer motorcycle evehicle custom1 custom2" speed="39.44" length="3.67" shape="4301.45,1169.07 4301.41,1170.11 4301.40,1170.82 4301.42,1171.53 4301.49,1172.57"/>
        <lane id=":10075091960_0_1" index="1" allow="private emergency authority army vip passenger hov taxi bus coach delivery truck trailer motorcycle evehicle custom1 custom2" speed="39.44" length="3.67" shape="4298.25,1168.97 4298.21,1170.11 4298.20,1170.89 4298.22,1171.66 4298.30,1172.80"/>
    </edge>
    <edge id=":10075091960_2" function="internal">
        <lane id=":10075091960_2_0" index="0" allow="private emergency authority army vip passenger hov taxi bus coach delivery truck trailer motorcycle evehicle custom1 custom2" speed="39.44" length="3.02" shape="4307.71,1169.25 4307.87,1172.11"/>
        <lane id=":10075091960_2_1" index="1" allow="private emergency authority army vip passenger hov taxi bus coach delivery truck trailer motorcycle evehicle custom1 custom2" speed="39.44" length="3.02" shape="4304.50,1169.16 4304.68,1172.34"/>
    </edge>
    <edge id=":10075091961_0" function="internal">
        <lane id=":10075091961_0_0" index="0" allow="private emergency authority army vip passenger hov taxi bus coach delivery truck trailer motorcycle evehicle custom1 custom2" speed="39.44" length="3.14" shape="4280.67,1181.97 4280.78,1178.90"/>
        <lane id=":10075091961_0_1" index="1" allow="private emergency authority army vip passenger hov taxi bus coach delivery truck trailer motorcycle evehicle custom1 custom2" speed="39.44" length="3.14" shape="4283.87,1182.15 4283.98,1178.95"/>
    </edge>
    <edge id=":10075091961_2" function="internal">
        <lane id=":10075091961_2_0" index="0" allow="private emergency authority army vip passenger hov taxi bus coach delivery truck trailer motorcycle evehicle custom1 custom2" speed="39.44" length="3.11" shape="4287.06,1182.34 4287.28,1179.19"/>
        <lane id=":10075091961_2_1" index="1" allow="private emergency authority army vip passenger hov taxi bus coach delivery truck trailer motorcycle evehicle custom1 custom2" speed="39.44" length="3.11" shape="4290.26,1182.52 4290.47,1179.46"/>
    </edge>
    <edge id=":10075091974_0" function="internal">
        <lane id=":10075091974_0_0" index="0" allow="private emergency authority army vip passenger hov taxi bus coach delivery truck trailer motorcycle evehicle custom1 custom2" speed="39.44" length="3.00" shape="4020.46,1002.28 4017.49,1002.72"/>
        <lane id=":10075091974_0_1" index="1" allow="private emergency authority army vip passenger hov taxi bus coach delivery truck trailer motorcycle evehicle custom1 custom2" speed="39.44" length="3.00" shape="4019.95,999.12 4016.99,999.56"/>
    </edge>
    <edge id=":10075091974_2" function="internal">
        <lane id=":10075091974_2_0" index="0" allow="private emergency authority army vip passenger hov taxi bus coach delivery truck trailer motorcycle evehicle custom1 custom2" speed="39.44" length="3.00" shape="4019.44,995.92 4016.48,996.40"/>
        <lane id=":10075091974_2_1" index="1" allow="private emergency authority army vip passenger hov taxi bus coach delivery truck trailer motorcycle evehicle custom1 custom2" speed="39.44" length="3.00" shape="4018.94,992.76 4015.98,993.24"/>
    </edge>
    <edge id=":1016463159-AddedOffRampNode_0" function="internal">
        <lane id=":1016463159-AddedOffRampNode_0_0" index="0" allow="private emergency authority army vip passenger hov taxi bus coach delivery truck trailer motorcycle evehicle custom1 custom2" speed="39.44" length="8.92" shape="4769.00,840.70 4766.56,842.22 4765.72,844.64 4764.89,847.06 4762.45,848.58"/>
        <lane id=":1016463159-AddedOffRampNode_0_1" index="1" allow="private emergency authority army vip passenger hov taxi bus coach delivery truck trailer motorcycle evehicle custom1 custom2" speed="39.44" length="8.92" shape="4769.00,840.70 4766.69,841.69 4765.40,843.08 4764.12,844.46 4761.81,845.45"/>
        <lane id=":1016463159-AddedOffRampNode_0_2" index="2" allow="private emergency authority army vip passenger hov taxi bus coach delivery truck trailer motorcycle evehicle custom1 custom2" speed="39.44" length="8.92" shape="4769.00,840.70 4761.16,842.31"/>
        <lane id=":1016463159-AddedOffRampNode_0_3" index="3" allow="private emergency authority army vip passenger hov taxi bus coach delivery truck trailer motorcycle evehicle custom1 custom2" speed="39.44" length="8.92" shape="4768.35,837.57 4760.52,839.18"/>
    </edge>
    <edge id=":1100853200#1-AddedOnRampNode_0" function="internal">
        <lane id=":1100853200#1-AddedOnRampNode_0_0" index="0" allow="private emergency authority army vip passenger hov taxi bus coach delivery truck trailer motorcycle evehicle custom1 custom2" speed="39.44" length="8.00" shape="4311.05,1266.53 4311.50,1274.52"/>
        <lane id=":1100853200#1-AddedOnRampNode_0_1" index="1" allow="private emergency authority army vip passenger hov taxi bus coach delivery truck trailer motorcycle evehicle custom1 custom2" speed="39.44" length="8.00" shape="4307.85,1266.71 4308.30,1274.70"/>
    </edge>
    <edge id=":1100853210#2-AddedOnRampNode_0" function="internal">
        <lane id=":1100853210#2-AddedOnRampNode_0_0" index="0" allow="private emergency authority army vip passenger hov taxi bus coach delivery truck trailer motorcycle evehicle custom1 custom2" speed="39.44" length="8.00" shape="3923.05,1010.84 3915.13,1011.93"/>
        <lane id=":1100853210#2-AddedOnRampNode_0_1" index="1" allow="private emergency authority army vip passenger hov taxi bus coach delivery truck trailer motorcycle evehicle custom1 custom2" speed="39.44" length="8.00" shape="3922.62,1007.67 3914.69,1008.76"/>
    </edge>
    <edge id=":1100853212#2-AddedOnRampNode_0" function="internal">
        <lane id=":1100853212#2-AddedOnRampNode_0_0" index="0" allow="private emergency authority army vip passenger hov taxi bus coach delivery truck trailer motorcycle evehicle custom1 custom2" speed="39.44" length="8.00" shape="4995.12,778.14 5002.95,776.53"/>
        <lane id=":1100853212#2-AddedOnRampNode_0_1" index="1" allow="private emergency authority army vip passenger hov taxi bus coach delivery truck trailer motorcycle evehicle custom1 custom2" speed="39.44" length="8.00" shape="4995.76,781.28 5003.60,779.66"/>
    </edge>
    <edge id=":1100853216-AddedOffRampNode_0" function="internal">
        <lane id=":1100853216-AddedOffRampNode_0_0" index="0" allow="private emergency authority army vip passenger hov taxi bus coach delivery truck trailer motorcycle evehicle custom1 custom2" speed="39.44" length="8.92" shape="4229.36,939.95 4231.78,938.40 4232.60,935.98 4233.42,933.55 4235.84,932.01"/>
        <lane id=":1100853216-AddedOffRampNode_0_1" index="1" allow="private emergency authority army vip passenger hov taxi bus coach delivery truck trailer motorcycle evehicle custom1 custom2" speed="39.44" length="8.92" shape="4229.36,939.95 4231.66,938.94 4232.93,937.54 4234.20,936.14 4236.51,935.14"/>
        <lane id=":1100853216-AddedOffRampNode_0_2" index="2" allow="private emergency authority army vip passenger hov taxi bus coach delivery truck trailer motorcycle evehicle custom1 custom2" speed="39.44" length="8.92" shape="4229.36,939.95 4237.18,938.27"/>
        <lane id=":1100853216-AddedOffRampNode_0_3" index="3" allow="private emergency authority army vip passenger hov taxi bus coach delivery truck trailer motorcycle evehicle custom1 custom2" speed="39.44" length="8.92" shape="4230.03,943.07 4237.85,941.40"/>
    </edge>
    <edge id=":9237191173_0" function="internal">
        <lane id=":9237191173_0_0" index="0" disallow="tram rail_urban rail rail_electric rail_fast ship" speed="3.65" length="4.67" shape="3894.28,1639.19 3893.49,1640.40 3892.69,1640.80 3891.89,1640.41 3891.08,1639.21"/>
    </edge>
    <edge id=":9237191176_0" function="internal">
        <lane id=":9237191176_0_0" index="0" disallow="tram rail_urban rail rail_electric rail_fast ship" speed="3.65" length="4.67" shape="3894.88,-0.01 3895.68,-1.21 3896.49,-1.60 3897.28,-1.19 3898.08,0.01"/>
    </edge>

    <edge id="-1000719831" from="9237191176" to="9237191173" priority="4" type="highway.unclassified" shape="3896.48,0.00 3889.54,961.74 3889.26,1059.30 3892.68,1639.20">
        <lane id="-1000719831_0" index="0" disallow="tram rail_urban rail rail_electric rail_fast ship" speed="13.89" length="1639.22" shape="3898.08,0.01 3891.14,961.75 3890.86,1059.30 3894.28,1639.19">
            <param key="origId" value="1000719831 1100853209 1100853208"/>
        </lane>
    </edge>
    <edge id="1016463159" from="10069144918" to="1016463159-AddedOffRampNode" name="哈肇高速" priority="14" type="highway.motorway" spreadType="center" shape="9158.25,445.79 9099.10,454.43 8951.14,473.41 8876.96,481.97 8808.35,487.71 8671.16,497.02 8599.44,500.73 8456.00,505.74 8098.16,510.82 7048.40,502.14 6804.99,504.70 6744.23,506.13 6622.71,511.21 6556.50,515.22 6490.34,520.11 6424.24,525.88 6358.23,532.52 6292.31,540.03 6226.67,548.40 5185.10,753.42 4764.76,839.94">
        <lane id="1016463159_0" index="0" allow="private emergency authority army vip passenger hov taxi bus coach delivery truck trailer motorcycle evehicle custom1 custom2" speed="39.44" length="4423.42" shape="9158.48,447.37 9099.32,456.01 8951.34,475.00 8877.12,483.56 8808.47,489.31 8671.26,498.62 8599.51,502.32 8456.04,507.34 8098.17,512.42 7048.40,503.74 6805.02,506.30 6744.28,507.73 6622.79,512.81 6556.61,516.82 6490.47,521.71 6424.39,527.48 6358.40,534.11 6292.50,541.62 6226.92,549.98 5185.41,754.99 4769.00,840.70">
            <param key="origId" value="1016463159 1100853210"/>
        </lane>
        <lane id="1016463159_1" index="1" allow="private emergency authority army vip passenger hov taxi bus coach delivery truck trailer motorcycle evehicle custom1 custom2" speed="39.44" length="4423.42" shape="9158.02,444.21 9098.89,452.84 8950.95,471.82 8876.80,480.37 8808.23,486.12 8671.07,495.42 8599.38,499.13 8455.96,504.14 8098.16,509.22 7048.40,500.54 6804.96,503.11 6744.18,504.54 6622.63,509.61 6556.39,513.63 6490.21,518.52 6424.09,524.29 6358.06,530.93 6292.12,538.44 6226.41,546.82 5184.78,751.85 4768.35,837.57">
            <param key="origId" value="1016463159 1100853210"/>
        </lane>
        <param key="ref" value="S22"/>
    </edge>
    <edge id="1016463159-AddedOffRampEdge" from="1016463159-AddedOffRampNode" to="10075081591" name="哈肇高速" priority="14" type="highway.motorway" spreadType="center" shape="4765.40,843.08 4667.45,863.24">
        <lane id="1016463159-AddedOffRampEdge_0" index="0" allow="private emergency authority army vip passenger hov taxi bus coach delivery truck trailer motorcycle evehicle custom1 custom2" speed="39.44" length="94.59" shape="4762.45,848.58 4669.80,867.65">
            <param key="origId" value="1016463159 1100853210"/>
        </lane>
        <lane id="1016463159-AddedOffRampEdge_1" index="1" allow="private emergency authority army vip passenger hov taxi bus coach delivery truck trailer motorcycle evehicle custom1 custom2" speed="39.44" length="94.59" shape="4761.81,845.45 4669.16,864.52">
            <param key="origId" value="1016463159 1100853210"/>
        </lane>
        <lane id="1016463159-AddedOffRampEdge_2" index="2" allow="private emergency authority army vip passenger hov taxi bus coach delivery truck trailer motorcycle evehicle custom1 custom2" speed="39.44" length="94.59" shape="4761.16,842.31 4668.51,861.39">
            <param key="origId" value="1016463159 1100853210"/>
        </lane>
        <lane id="1016463159-AddedOffRampEdge_3" index="3" allow="private emergency authority army vip passenger hov taxi bus coach delivery truck trailer motorcycle evehicle custom1 custom2" speed="39.44" length="94.59" shape="4760.52,839.18 4667.87,858.25">
            <param key="origId" value="1016463159 1100853210"/>
        </lane>
        <param key="ref" value="S22"/>
    </edge>
    <edge id="1100853200#0" from="10075081591" to="10075091960" priority="14" type="highway.motorway" spreadType="center" shape="4668.10,866.37 4517.61,904.10 4454.48,925.74 4418.46,945.22 4387.01,968.96 4363.79,993.05 4342.05,1023.40 4327.25,1053.51 4311.63,1096.88 4304.60,1132.41 4306.17,1170.70">
        <lane id="1100853200#0_0" index="0" allow="private emergency authority army vip passenger hov taxi bus coach delivery truck trailer motorcycle evehicle custom1 custom2" speed="39.44" length="524.31" shape="4667.12,868.27 4518.06,905.64 4455.12,927.22 4419.33,946.57 4388.07,970.17 4365.02,994.08 4343.42,1024.22 4328.72,1054.14 4313.18,1097.31 4306.21,1132.53 4307.71,1169.25">
            <param key="origId" value="1100853200"/>
        </lane>
        <lane id="1100853200#0_1" index="1" allow="private emergency authority army vip passenger hov taxi bus coach delivery truck trailer motorcycle evehicle custom1 custom2" speed="39.44" length="524.31" shape="4666.34,865.16 4517.15,902.57 4453.83,924.27 4417.59,943.87 4385.94,967.76 4362.56,992.03 4340.67,1022.57 4325.77,1052.89 4310.08,1096.45 4302.99,1132.28 4304.50,1169.16">
            <param key="origId" value="1100853200"/>
        </lane>
    </edge>
    <edge id="1100853200#1" from="1100853200#1-AddedOnRampNode" to="10075081603" priority="14" type="highway.motorway" spreadType="center">
        <lane id="1100853200#1_0" index="0" allow="private emergency authority army vip passenger hov taxi bus coach delivery truck trailer motorcycle evehicle custom1 custom2" speed="39.44" length="3.81" shape="4311.50,1274.52 4311.71,1278.33">
            <param key="origId" value="1100853200"/>
        </lane>
        <lane id="1100853200#1_1" index="1" allow="private emergency authority army vip passenger hov taxi bus coach delivery truck trailer motorcycle evehicle custom1 custom2" speed="39.44" length="3.81" shape="4308.30,1274.70 4308.52,1278.50">
            <param key="origId" value="1100853200"/>
        </lane>
    </edge>
    <edge id="1100853200#1-AddedOnRampEdge" from="10075091960" to="1100853200#1-AddedOnRampNode" priority="14" type="highway.motorway" spreadType="center" shape="4302.98,1170.93 4304.95,1198.35 4311.75,1250.44 4312.87,1270.44">
        <lane id="1100853200#1-AddedOnRampEdge_0" index="0" allow="private emergency authority army vip passenger hov taxi bus coach delivery truck trailer motorcycle evehicle custom1 custom2" speed="39.44" length="94.53" acceleration="1" shape="4307.87,1172.11 4309.72,1197.86 4316.53,1250.00 4317.44,1266.18">
            <param key="origId" value="1100853200"/>
        </lane>
        <lane id="1100853200#1-AddedOnRampEdge_1" index="1" allow="private emergency authority army vip passenger hov taxi bus coach delivery truck trailer motorcycle evehicle custom1 custom2" speed="39.44" length="94.53" acceleration="1" shape="4304.68,1172.34 4306.54,1198.19 4313.34,1250.29 4314.24,1266.36">
            <param key="origId" value="1100853200"/>
        </lane>
        <lane id="1100853200#1-AddedOnRampEdge_2" index="2" allow="private emergency authority army vip passenger hov taxi bus coach delivery truck trailer motorcycle evehicle custom1 custom2" speed="39.44" length="94.53" shape="4301.49,1172.57 4303.35,1198.51 4310.15,1250.59 4311.05,1266.53">
            <param key="origId" value="1100853200"/>
        </lane>
        <lane id="1100853200#1-AddedOnRampEdge_3" index="3" allow="private emergency authority army vip passenger hov taxi bus coach delivery truck trailer motorcycle evehicle custom1 custom2" speed="39.44" length="94.53" shape="4298.30,1172.80 4300.17,1198.83 4306.96,1250.89 4307.85,1266.71">
            <param key="origId" value="1100853200"/>
        </lane>
    </edge>
    <edge id="1100853202" from="10075091933" to="10075091960" priority="14" type="highway.motorway" spreadType="center" shape="4329.42,911.63 4445.51,884.46 4502.43,866.17 4532.95,852.55 4550.13,836.85 4561.04,822.62 4567.52,808.54 4570.70,790.16 4569.52,773.82 4564.42,753.82 4555.17,741.53 4543.44,731.20 4528.05,724.78 4507.02,719.81 4488.69,719.80 4466.02,722.45 4434.58,727.91 4408.95,736.33 4383.45,749.16 4366.84,762.94 4346.63,782.52 4334.59,800.58 4324.55,821.70 4315.42,850.99 4313.61,872.48 4305.75,1015.79 4302.03,1093.42 4299.78,1171.16">
        <lane id="1100853202_0" index="0" allow="private emergency authority army vip passenger hov taxi bus coach delivery truck trailer motorcycle evehicle custom1 custom2" speed="39.44" length="965.03" shape="4330.62,909.70 4445.08,882.91 4501.86,864.68 4532.06,851.19 4548.95,835.76 4559.66,821.78 4565.98,808.06 4569.09,790.08 4567.93,774.07 4562.95,754.53 4553.99,742.62 4542.58,732.57 4527.56,726.31 4506.84,721.41 4488.78,721.40 4466.25,724.04 4434.97,729.46 4409.56,737.81 4384.34,750.51 4367.91,764.13 4347.87,783.55 4335.99,801.37 4326.05,822.28 4317.00,851.30 4315.21,872.60 4307.35,1015.88 4303.63,1093.48 4301.45,1169.07">
            <param key="origId" value="1100853202 1100853206 1100853204"/>
        </lane>
        <lane id="1100853202_1" index="1" allow="private emergency authority army vip passenger hov taxi bus coach delivery truck trailer motorcycle evehicle custom1 custom2" speed="39.44" length="965.03" shape="4331.35,912.82 4445.94,886.00 4503.00,867.67 4533.84,853.91 4551.32,837.94 4562.42,823.45 4569.06,809.02 4572.31,790.24 4571.10,773.56 4565.90,753.12 4556.35,740.44 4544.30,729.82 4528.55,723.26 4507.21,718.21 4488.60,718.20 4465.79,720.87 4434.20,726.35 4408.34,734.84 4382.57,747.81 4365.77,761.75 4345.40,781.49 4333.20,799.79 4323.06,821.12 4313.84,850.68 4312.01,872.37 4304.15,1015.71 4300.43,1093.36 4298.25,1168.97">
            <param key="origId" value="1100853202 1100853206 1100853204"/>
        </lane>
    </edge>
    <edge id="1100853203#0" from="10075081604" to="10075091961" priority="14" type="highway.motorway" spreadType="center" shape="4275.31,1277.93 4278.98,1236.10 4284.21,1203.84 4285.55,1180.68">
        <lane id="1100853203#0_0" index="0" allow="private emergency authority army vip passenger hov taxi bus coach delivery truck trailer motorcycle evehicle custom1 custom2" speed="39.44" length="96.30" shape="4270.53,1277.51 4274.22,1235.50 4279.44,1203.31 4280.67,1181.97">
            <param key="origId" value="1100853203"/>
        </lane>
        <lane id="1100853203#0_1" index="1" allow="private emergency authority army vip passenger hov taxi bus coach delivery truck trailer motorcycle evehicle custom1 custom2" speed="39.44" length="96.30" shape="4273.72,1277.79 4277.39,1235.90 4282.62,1203.66 4283.87,1182.15">
            <param key="origId" value="1100853203"/>
        </lane>
        <lane id="1100853203#0_2" index="2" allow="private emergency authority army vip passenger hov taxi bus coach delivery truck trailer motorcycle evehicle custom1 custom2" speed="39.44" length="96.30" shape="4276.91,1278.07 4280.57,1236.30 4285.81,1204.01 4287.06,1182.34">
            <param key="origId" value="1100853203"/>
        </lane>
        <lane id="1100853203#0_3" index="3" allow="private emergency authority army vip passenger hov taxi bus coach delivery truck trailer motorcycle evehicle custom1 custom2" speed="39.44" length="96.30" shape="4280.09,1278.34 4283.75,1236.69 4288.99,1204.36 4290.26,1182.52">
            <param key="origId" value="1100853203"/>
        </lane>
    </edge>
    <edge id="1100853203#1" from="10075091961" to="10075091932" priority="14" type="highway.motorway" spreadType="center" shape="4288.75,1180.86 4290.39,1161.23 4291.57,1120.86 4293.49,1064.72 4295.68,1016.75 4297.42,974.47 4301.88,899.97 4305.33,851.96 4310.22,827.85 4320.72,801.66 4336.36,777.83 4357.12,755.71 4382.47,738.47 4416.68,721.58 4446.79,714.90 4481.44,711.21 4513.74,712.66 4541.21,721.20 4572.09,737.18 4598.57,753.94 4625.71,771.31 4651.51,786.83 4682.31,800.29 4720.54,809.10 4763.54,809.56 4805.88,808.78 4900.12,792.80">