<?xml version="1.0" encoding="UTF-8"?>

<!-- generated on 09/07/22 17:22:47 by Eclipse SUMO netedit Version 1.8.0
<configuration xmlns:xsi="http://www.w3.org/2001/XMLSchema-instance" xsi:noNamespaceSchemaLocation="http://sumo.dlr.de/xsd/netconvertConfiguration.xsd">

    <input>
        <sumo-net-file value="D:\veins\sumo-1.8.0\tools\2021-12-01-19-32-05\osm.net.xml"/>
    </input>

    <output>
        <output-file value="D:\veins\sumo-1.8.0\tools\2021-12-01-19-32-05\osm.net.xml"/>
        <output.street-names value="true"/>
    </output>

    <processing>
        <geometry.min-radius.fix.railways value="false"/>
        <geometry.max-grade.fix value="false"/>
        <offset.disable-normalization value="true"/>
        <lefthand value="true"/>
    </processing>

    <junctions>
        <no-turnarounds value="true"/>
        <junctions.corner-detail value="5"/>
        <junctions.limit-turn-speed value="5.5"/>
        <rectangular-lane-cut value="false"/>
    </junctions>

    <pedestrian>
        <walkingareas value="false"/>
    </pedestrian>

    <netedit>
        <route-files value="D:\veins\sumo-1.8.0\tools\2021-12-01-19-32-05\3.rou.xml"/>
    </netedit>

    <report>
        <aggregate-warnings value="5"/>
    </report>

</configuration>
-->

<routes xmlns:xsi="http://www.w3.org/2001/XMLSchema-instance" xsi:noNamespaceSchemaLocation="http://sumo.dlr.de/xsd/routes_file.xsd">
    <flow id="flow_0" begin="0.00" from="117037805#1" to="981951783#5" via="117037805#4 -116561596#1 -116561596#0 202071478#2 202071478#3 202071478#4 202071478#5 116268870#2 116268870#3 -899479665 981951783#1 981951783#2 981951783#3 981951783#4"
number=
"10"
period=
"10.00"
/>
</routes>
