<?xml version="1.0" encoding="UTF-8"?>

<!-- generated on 2021-12-01 19:32:15 by Eclipse SUMO netconvert Version 1.10.0
<configuration xmlns:xsi="http://www.w3.org/2001/XMLSchema-instance" xsi:noNamespaceSchemaLocation="http://sumo.dlr.de/xsd/netconvertConfiguration.xsd">

    <input>
        <type-files value="D:\veins\Eclipse\Sumo\data\typemap\osmNetconvert.typ.xml"/>
        <osm-files value="osm_bbox.osm.xml"/>
    </input>

    <output>
        <output-file value="osm.net.xml"/>
        <output.street-names value="true"/>
        <output.original-names value="true"/>
    </output>

    <projection>
        <proj.utm value="true"/>
    </projection>

    <processing>
        <geometry.remove value="true"/>
        <roundabouts.guess value="true"/>
        <lefthand value="true"/>
    </processing>

    <tls_building>
        <tls.discard-simple value="true"/>
        <tls.join value="true"/>
        <tls.guess-signals value="true"/>
        <tls.default-type value="actuated"/>
    </tls_building>

    <ramp_guessing>
        <ramps.guess value="true"/>
    </ramp_guessing>

    <junctions>
        <junctions.join value="true"/>
        <junctions.corner-detail value="5"/>
    </junctions>

    <report>
        <verbose value="true"/>
        <aggregate-warnings value="5"/>
    </report>

</configuration>
-->

<net version="1.9" junctionCornerDetail="5" lefthand="true" limitTurnSpeed="5.50" xmlns:xsi="http://www.w3.org/2001/XMLSchema-instance" xsi:noNamespaceSchemaLocation="http://sumo.dlr.de/xsd/net_file.xsd">

    <location netOffset="-570602.62,-3877133.59" convBoundary="0.00,-0.00,1465.81,2990.54" origBoundary="135.774031,35.034417,135.790255,35.061313" projParameter="+proj=utm +zone=53 +ellps=WGS84 +datum=WGS84 +units=m +no_defs"/>

    <type id="highway.bridleway" priority="1" numLanes="1" speed="2.78" allow="pedestrian" oneway="1" width="2.00"/>
    <type id="highway.bus_guideway" priority="1" numLanes="1" speed="27.78" allow="bus" oneway="1"/>
    <type id="highway.cycleway" priority="1" numLanes="1" speed="8.33" allow="bicycle" oneway="0" width="1.00"/>
    <type id="highway.footway" priority="1" numLanes="1" speed="2.78" allow="pedestrian" oneway="1" width="2.00"/>
    <type id="highway.ford" priority="1" numLanes="1" speed="2.78" allow="army" oneway="0"/>
    <type id="highway.living_street" priority="2" numLanes="1" speed="2.78" disallow="tram rail_urban rail rail_electric rail_fast ship" oneway="0"/>
    <type id="highway.motorway" priority="14" numLanes="2" speed="39.44" allow="private emergency authority army vip passenger hov taxi bus coach delivery truck trailer motorcycle evehicle custom1 custom2" oneway="1"/>
    <type id="highway.motorway_link" priority="9" numLanes="1" speed="22.22" allow="private emergency authority army vip passenger hov taxi bus coach delivery truck trailer motorcycle evehicle custom1 custom2" oneway="1"/>
    <type id="highway.path" priority="1" numLanes="1" speed="2.78" allow="pedestrian bicycle" oneway="0" width="2.00"/>
    <type id="highway.pedestrian" priority="1" numLanes="1" speed="2.78" allow="pedestrian" oneway="1" width="2.00"/>
    <type id="highway.primary" priority="12" numLanes="2" speed="27.78" disallow="tram rail_urban rail rail_electric rail_fast ship" oneway="0"/>
    <type id="highway.primary_link" priority="7" numLanes="1" speed="22.22" disallow="tram rail_urban rail rail_electric rail_fast ship" oneway="0"/>
    <type id="highway.raceway" priority="15" numLanes="2" speed="83.33" allow="vip" oneway="0"/>
    <type id="highway.residential" priority="3" numLanes="1" speed="13.89" disallow="tram rail_urban rail rail_electric rail_fast ship" oneway="0"/>
    <type id="highway.secondary" priority="11" numLanes="1" speed="27.78" disallow="tram rail_urban rail rail_electric rail_fast ship" oneway="0"/>
    <type id="highway.secondary_link" priority="6" numLanes="1" speed="22.22" disallow="tram rail_urban rail rail_electric rail_fast ship" oneway="0"/>
    <type id="highway.service" priority="1" numLanes="1" speed="5.56" allow="pedestrian delivery bicycle" oneway="0"/>
    <type id="highway.stairs" priority="1" numLanes="1" speed="1.39" allow="pedestrian" oneway="1" width="2.00"/>
    <type id="highway.step" priority="1" numLanes="1" speed="1.39" allow="pedestrian" oneway="1" width="2.00"/>
    <type id="highway.steps" priority="1" numLanes="1" speed="1.39" allow="pedestrian" oneway="1" width="2.00"/>
    <type id="highway.tertiary" priority="10" numLanes="1" speed="22.22" disallow="tram rail_urban rail rail_electric rail_fast ship" oneway="0"/>
    <type id="highway.tertiary_link" priority="5" numLanes="1" speed="22.22" disallow="tram rail_urban rail rail_electric rail_fast ship" oneway="0"/>
    <type id="highway.track" priority="1" numLanes="1" speed="5.56" allow="pedestrian motorcycle moped bicycle" oneway="0"/>
    <type id="highway.trunk" priority="13" numLanes="2" speed="27.78" disallow="pedestrian bicycle tram rail_urban rail rail_electric rail_fast ship" oneway="0"/>
    <type id="highway.trunk_link" priority="8" numLanes="1" speed="22.22" disallow="pedestrian bicycle tram rail_urban rail rail_electric rail_fast ship" oneway="0"/>
    <type id="highway.unclassified" priority="4" numLanes="1" speed="13.89" disallow="tram rail_urban rail rail_electric rail_fast ship" oneway="0"/>
    <type id="highway.unsurfaced" priority="1" numLanes="1" speed="8.33" disallow="tram rail_urban rail rail_electric rail_fast ship" oneway="0"/>
    <type id="railway.highspeed" priority="21" numLanes="1" speed="69.44" allow="rail_fast" oneway="1"/>
    <type id="railway.light_rail" priority="19" numLanes="1" speed="27.78" allow="rail_urban" oneway="1"/>
    <type id="railway.preserved" priority="16" numLanes="1" speed="27.78" allow="rail" oneway="1"/>
    <type id="railway.rail" priority="20" numLanes="1" speed="44.44" allow="rail" oneway="1"/>
    <type id="railway.subway" priority="18" numLanes="1" speed="27.78" allow="rail_urban" oneway="1"/>
    <type id="railway.tram" priority="17" numLanes="1" speed="13.89" allow="tram" oneway="1"/>

    <edge id=":1007373838_0" function="internal">
        <lane id=":1007373838_0_0" index="0" disallow="tram rail_urban rail rail_electric rail_fast ship" speed="3.65" length="4.67" shape="5.61,0.54 5.26,-0.86 4.64,-1.51 3.75,-1.40 2.60,-0.54"/>
    </edge>
    <edge id=":1007373928_0" function="internal">
        <lane id=":1007373928_0_0" index="0" disallow="tram rail_urban rail rail_electric rail_fast ship" speed="13.89" length="23.53" shape="996.21,1683.39 978.18,1668.27"/>
    </edge>
    <edge id=":1007373928_1" function="internal">
        <lane id=":1007373928_1_0" index="0" disallow="tram rail_urban rail rail_electric rail_fast ship" speed="6.47" length="15.81" shape="996.21,1683.39 992.39,1681.86 988.97,1683.04 986.85,1686.17 986.93,1690.47"/>
    </edge>
    <edge id=":1007373928_2" function="internal">
        <lane id=":1007373928_2_0" index="0" disallow="tram rail_urban rail rail_electric rail_fast ship" speed="3.65" length="4.67" shape="996.21,1683.39 994.78,1683.23 993.95,1683.58 993.74,1684.45 994.14,1685.84"/>
    </edge>
    <edge id=":1007373928_3" function="internal">
        <lane id=":1007373928_3_0" index="0" disallow="tram rail_urban rail rail_electric rail_fast ship" speed="5.53" length="11.02" shape="989.82,1689.02 988.98,1685.31 989.42,1683.55 991.14,1683.72 994.14,1685.84"/>
    </edge>
    <edge id=":1007373928_4" function="internal">
        <lane id=":1007373928_4_0" index="0" disallow="tram rail_urban rail rail_electric rail_fast ship" speed="13.89" length="23.93" shape="989.82,1689.02 987.91,1684.21 984.88,1678.04 981.42,1672.18 978.18,1668.27"/>
    </edge>
    <edge id=":1007373928_5" function="internal">
        <lane id=":1007373928_5_0" index="0" disallow="tram rail_urban rail rail_electric rail_fast ship" speed="3.67" length="2.21" shape="989.82,1689.02 988.55,1688.29 987.81,1688.30"/>
    </edge>
    <edge id=":1007373928_9" function="internal">
        <lane id=":1007373928_9_0" index="0" disallow="tram rail_urban rail rail_electric rail_fast ship" speed="3.67" length="2.53" shape="987.81,1688.30 987.65,1688.30 987.10,1689.02 986.93,1690.47"/>
    </edge>
    <edge id=":1007373928_6" function="internal">
        <lane id=":1007373928_6_0" index="0" disallow="tram rail_urban rail rail_electric rail_fast ship" speed="13.89" length="22.62" shape="976.16,1670.75 979.26,1674.49 982.42,1680.01 985.15,1685.82 986.93,1690.47"/>
    </edge>
    <edge id=":1007373928_7" function="internal">
        <lane id=":1007373928_7_0" index="0" disallow="tram rail_urban rail rail_electric rail_fast ship" speed="13.89" length="23.48" shape="976.16,1670.75 994.14,1685.84"/>
    </edge>
    <edge id=":1007373928_8" function="internal">
        <lane id=":1007373928_8_0" index="0" disallow="tram rail_urban rail rail_electric rail_fast ship" speed="3.65" length="1.99" shape="976.16,1670.75 977.59,1670.89 978.09,1670.66"/>
    </edge>
    <edge id=":1007373928_10" function="internal">
        <lane id=":1007373928_10_0" index="0" disallow="tram rail_urban rail rail_electric rail_fast ship" speed="3.65" length="2.69" shape="978.09,1670.66 978.41,1670.52 978.60,1669.65 978.18,1668.27"/>
    </edge>
    <edge id=":1007373971_0" function="internal">
        <lane id=":1007373971_0_0" index="0" disallow="tram rail_urban rail rail_electric rail_fast ship" speed="3.65" length="4.67" shape="1164.61,1511.50 1165.06,1510.13 1164.88,1509.26 1164.07,1508.87 1162.63,1508.99"/>
    </edge>
    <edge id=":1007373972_0" function="internal">
        <lane id=":1007373972_0_0" index="0" disallow="tram rail_urban rail rail_electric rail_fast ship" speed="3.65" length="4.67" shape="1143.12,1488.19 1143.55,1486.82 1143.36,1485.94 1142.54,1485.57 1141.11,1485.71"/>
    </edge>
    <edge id=":1278943131_0" function="internal">
        <lane id=":1278943131_0_0" index="0" disallow="tram rail_urban rail rail_electric rail_fast ship" speed="13.89" length="3.03" shape="881.85,1496.20 879.75,1494.02"/>
    </edge>
    <edge id=":1278943131_1" function="internal">
        <lane id=":1278943131_1_0" index="0" disallow="tram rail_urban rail rail_electric rail_fast ship" speed="3.65" length="2.34" shape="881.85,1496.20 880.44,1495.91 879.59,1496.18"/>
    </edge>
    <edge id=":1278943131_4" function="internal">
        <lane id=":1278943131_4_0" index="0" disallow="tram rail_urban rail rail_electric rail_fast ship" speed="3.65" length="2.34" shape="879.59,1496.18 879.30,1497.03 879.57,1498.45"/>
    </edge>
    <edge id=":1278943131_2" function="internal">
        <lane id=":1278943131_2_0" index="0" disallow="tram rail_urban rail rail_electric rail_fast ship" speed="13.89" length="4.70" shape="876.32,1495.04 879.57,1498.45"/>
    </edge>
    <edge id=":1278943131_3" function="internal">
        <lane id=":1278943131_3_0" index="0" disallow="tram rail_urban rail rail_electric rail_fast ship" speed="3.79" length="3.42" shape="876.32,1495.04 877.56,1496.07 878.55,1496.24 879.14,1495.69"/>
    </edge>
    <edge id=":1278943131_5" function="internal">
        <lane id=":1278943131_5_0" index="0" disallow="tram rail_urban rail rail_electric rail_fast ship" speed="3.79" length="1.80" shape="879.14,1495.69 879.28,1495.56 879.75,1494.02"/>
    </edge>
    <edge id=":1278957704_0" function="internal">
        <lane id=":1278957704_0_0" index="0" disallow="tram rail_urban rail rail_electric rail_fast ship" speed="6.51" length="8.98" shape="1049.35,1863.23 1046.91,1862.94 1045.14,1861.95 1044.04,1860.24 1043.61,1857.82"/>
    </edge>
    <edge id=":1278957704_1" function="internal">
        <lane id=":1278957704_1_0" index="0" disallow="tram rail_urban rail rail_electric rail_fast ship" speed="13.89" length="14.29" shape="1049.35,1863.23 1035.07,1863.82"/>
    </edge>
    <edge id=":1278957704_2" function="internal">
        <lane id=":1278957704_2_0" index="0" disallow="tram rail_urban rail rail_electric rail_fast ship" speed="3.65" length="2.34" shape="1049.35,1863.23 1048.17,1864.06 1047.79,1864.87"/>
    </edge>
    <edge id=":1278957704_9" function="internal">
        <lane id=":1278957704_9_0" index="0" disallow="tram rail_urban rail rail_electric rail_fast ship" speed="3.65" length="2.34" shape="1047.79,1864.87 1048.21,1865.66 1049.43,1866.43"/>
    </edge>
    <edge id=":1278957704_3" function="internal">
        <lane id=":1278957704_3_0" index="0" disallow="tram rail_urban rail rail_electric rail_fast ship" speed="13.89" length="14.19" shape="1035.25,1867.01 1049.43,1866.43"/>
    </edge>
    <edge id=":1278957704_4" function="internal">
        <lane id=":1278957704_4_0" index="0" disallow="tram rail_urban rail rail_electric rail_fast ship" speed="8.04" length="5.74" shape="1035.25,1867.01 1039.02,1866.25 1040.59,1865.19"/>
    </edge>
    <edge id=":1278957704_5" function="internal">
        <lane id=":1278957704_5_0" index="0" disallow="tram rail_urban rail rail_electric rail_fast ship" speed="3.65" length="2.34" shape="1035.25,1867.01 1036.40,1866.14 1036.76,1865.32"/>
    </edge>
    <edge id=":1278957704_10" function="internal">
        <lane id=":1278957704_10_0" index="0" disallow="tram rail_urban rail rail_electric rail_fast ship" speed="8.04" length="8.36" shape="1040.59,1865.19 1041.66,1864.47 1043.19,1861.66 1043.61,1857.82"/>
    </edge>
    <edge id=":1278957704_11" function="internal">
        <lane id=":1278957704_11_0" index="0" disallow="tram rail_urban rail rail_electric rail_fast ship" speed="3.65" length="2.34" shape="1036.76,1865.32 1036.31,1864.55 1035.07,1863.82"/>
    </edge>
    <edge id=":1278957704_6" function="internal">
        <lane id=":1278957704_6_0" index="0" disallow="tram rail_urban rail rail_electric rail_fast ship" speed="6.56" length="9.02" shape="1040.41,1857.92 1040.15,1860.38 1039.17,1862.19 1037.48,1863.33 1035.07,1863.82"/>
    </edge>
    <edge id=":1278957704_7" function="internal">
        <lane id=":1278957704_7_0" index="0" disallow="tram rail_urban rail rail_electric rail_fast ship" speed="8.00" length="14.12" shape="1040.41,1857.92 1041.08,1861.73 1042.81,1864.41 1045.59,1865.98 1049.43,1866.43"/>
    </edge>
    <edge id=":1278957704_8" function="internal">
        <lane id=":1278957704_8_0" index="0" disallow="tram rail_urban rail rail_electric rail_fast ship" speed="3.65" length="4.67" shape="1040.41,1857.92 1041.25,1859.09 1042.06,1859.47 1042.85,1859.04 1043.61,1857.82"/>
    </edge>
    <edge id=":1278957734_0" function="internal">
        <lane id=":1278957734_0_0" index="0" disallow="tram rail_urban rail rail_electric rail_fast ship" speed="8.21" length="11.21" shape="1181.08,1932.06 1178.63,1931.55 1176.56,1930.16 1174.87,1927.90 1173.57,1924.77"/>
    </edge>
    <edge id=":1278957734_1" function="internal">
        <lane id=":1278957734_1_0" index="0" disallow="tram rail_urban rail rail_electric rail_fast ship" speed="13.89" length="14.85" shape="1181.08,1932.06 1166.24,1931.62"/>
        <lane id=":1278957734_1_1" index="1" disallow="tram rail_urban rail rail_electric rail_fast ship" speed="13.89" length="14.85" shape="1180.99,1935.26 1166.14,1934.82"/>
    </edge>
    <edge id=":1278957734_3" function="internal">
        <lane id=":1278957734_3_0" index="0" disallow="tram rail_urban rail rail_electric rail_fast ship" speed="5.90" length="9.07" shape="1170.54,1925.82 1170.97,1928.43 1170.40,1930.26 1168.82,1931.33 1166.24,1931.62"/>
    </edge>
    <edge id=":1278957734_4" function="internal">
        <lane id=":1278957734_4_0" index="0" disallow="tram rail_urban rail rail_electric rail_fast ship" speed="3.65" length="4.68" shape="1170.54,1925.82 1171.69,1926.69 1172.58,1926.81 1173.20,1926.17 1173.57,1924.77"/>
    </edge>
    <edge id=":1306585488_0" function="internal">
        <lane id=":1306585488_0_0" index="0" disallow="tram rail_urban rail rail_electric rail_fast ship" speed="6.39" length="9.04" shape="466.97,1525.90 466.62,1528.37 465.56,1530.09 463.78,1531.06 461.30,1531.28"/>
    </edge>
    <edge id=":1306585488_1" function="internal">
        <lane id=":1306585488_1_0" index="0" disallow="tram rail_urban rail rail_electric rail_fast ship" speed="13.89" length="14.49" shape="466.97,1525.90 466.56,1540.39"/>
    </edge>
    <edge id=":1306585488_2" function="internal">
        <lane id=":1306585488_2_0" index="0" disallow="tram rail_urban rail rail_electric rail_fast ship" speed="8.15" length="14.29" shape="466.97,1525.90 467.51,1529.82 469.13,1532.68 471.81,1534.46 475.57,1535.18"/>
    </edge>
    <edge id=":1306585488_3" function="internal">
        <lane id=":1306585488_3_0" index="0" disallow="tram rail_urban rail rail_electric rail_fast ship" speed="3.65" length="4.67" shape="466.97,1525.90 467.77,1527.10 468.58,1527.50 469.37,1527.10 470.17,1525.90"/>
    </edge>
    <edge id=":1306585488_4" function="internal">
        <lane id=":1306585488_4_0" index="0" disallow="tram rail_urban rail rail_electric rail_fast ship" speed="6.69" length="9.29" shape="475.70,1531.98 473.29,1531.51 471.56,1530.34 470.52,1528.47 470.17,1525.90"/>
    </edge>
    <edge id=":1306585488_5" function="internal">
        <lane id=":1306585488_5_0" index="0" disallow="tram rail_urban rail rail_electric rail_fast ship" speed="22.22" length="14.43" shape="475.70,1531.98 461.30,1531.28"/>
    </edge>
    <edge id=":1306585488_6" function="internal">
        <lane id=":1306585488_6_0" index="0" disallow="tram rail_urban rail rail_electric rail_fast ship" speed="8.03" length="5.80" shape="475.70,1531.98 471.90,1532.37 470.17,1533.32"/>
    </edge>
    <edge id=":1306585488_7" function="internal">
        <lane id=":1306585488_7_0" index="0" disallow="tram rail_urban rail rail_electric rail_fast ship" speed="3.65" length="2.34" shape="475.70,1531.98 474.47,1532.73 474.04,1533.51"/>
    </edge>
    <edge id=":1306585488_16" function="internal">
        <lane id=":1306585488_16_0" index="0" disallow="tram rail_urban rail rail_electric rail_fast ship" speed="8.03" length="8.32" shape="470.17,1533.32 469.10,1533.90 467.32,1536.57 466.56,1540.39"/>
    </edge>
    <edge id=":1306585488_17" function="internal">
        <lane id=":1306585488_17_0" index="0" disallow="tram rail_urban rail rail_electric rail_fast ship" speed="3.65" length="2.34" shape="474.04,1533.51 474.40,1534.33 475.57,1535.18"/>
    </edge>
    <edge id=":1306585488_8" function="internal">
        <lane id=":1306585488_8_0" index="0" disallow="tram rail_urban rail rail_electric rail_fast ship" speed="6.54" length="9.01" shape="469.75,1540.57 470.24,1538.13 471.37,1536.41 473.15,1535.43 475.57,1535.18"/>
    </edge>
    <edge id=":1306585488_9" function="internal">
        <lane id=":1306585488_9_0" index="0" disallow="tram rail_urban rail rail_electric rail_fast ship" speed="13.89" length="14.68" shape="469.75,1540.57 470.17,1525.90"/>
    </edge>
    <edge id=":1306585488_10" function="internal">
        <lane id=":1306585488_10_0" index="0" disallow="tram rail_urban rail rail_electric rail_fast ship" speed="8.03" length="14.34" shape="469.75,1540.57 469.42,1536.69 467.90,1533.85 465.19,1532.05 461.30,1531.28"/>
    </edge>
    <edge id=":1306585488_11" function="internal">
        <lane id=":1306585488_11_0" index="0" disallow="tram rail_urban rail rail_electric rail_fast ship" speed="3.65" length="4.67" shape="469.75,1540.57 469.03,1539.33 468.25,1538.88 467.43,1539.24 466.56,1540.39"/>
    </edge>
    <edge id=":1306585488_12" function="internal">
        <lane id=":1306585488_12_0" index="0" disallow="tram rail_urban rail rail_electric rail_fast ship" speed="6.54" length="9.17" shape="461.12,1534.48 463.62,1534.96 465.36,1536.11 466.34,1537.92 466.56,1540.39"/>
    </edge>
    <edge id=":1306585488_13" function="internal">
        <lane id=":1306585488_13_0" index="0" disallow="tram rail_urban rail rail_electric rail_fast ship" speed="22.22" length="14.46" shape="461.12,1534.48 475.57,1535.18"/>
    </edge>
    <edge id=":1306585488_14" function="internal">
        <lane id=":1306585488_14_0" index="0" disallow="tram rail_urban rail rail_electric rail_fast ship" speed="7.91" length="6.00" shape="461.12,1534.48 465.08,1534.13 466.86,1533.15"/>
    </edge>
    <edge id=":1306585488_15" function="internal">
        <lane id=":1306585488_15_0" index="0" disallow="tram rail_urban rail rail_electric rail_fast ship" speed="3.65" length="2.34" shape="461.12,1534.48 462.36,1533.74 462.81,1532.97"/>
    </edge>
    <edge id=":1306585488_18" function="internal">
        <lane id=":1306585488_18_0" index="0" disallow="tram rail_urban rail rail_electric rail_fast ship" speed="7.91" length="8.40" shape="466.86,1533.15 467.91,1532.58 469.61,1529.84 470.17,1525.90"/>
    </edge>
    <edge id=":1306585488_19" function="internal">
        <lane id=":1306585488_19_0" index="0" disallow="tram rail_urban rail rail_electric rail_fast ship" speed="3.65" length="2.34" shape="462.81,1532.97 462.45,1532.15 461.30,1531.28"/>
    </edge>
    <edge id=":1306585778_0" function="internal">
        <lane id=":1306585778_0_0" index="0" disallow="tram rail_urban rail rail_electric rail_fast ship" speed="6.56" length="9.07" shape="683.66,1534.57 683.18,1537.01 682.04,1538.73 680.24,1539.72 677.78,1539.97"/>
    </edge>
    <edge id=":1306585778_1" function="internal">
        <lane id=":1306585778_1_0" index="0" disallow="tram rail_urban rail rail_electric rail_fast ship" speed="8.00" length="14.20" shape="683.66,1534.57 684.00,1538.44 685.50,1541.28 688.15,1543.08 691.97,1543.83"/>
    </edge>
    <edge id=":1306585778_2" function="internal">
        <lane id=":1306585778_2_0" index="0" disallow="tram rail_urban rail rail_electric rail_fast ship" speed="3.65" length="4.67" shape="683.66,1534.57 684.39,1535.81 685.17,1536.25 685.99,1535.90 686.85,1534.74"/>
    </edge>
    <edge id=":1306585778_3" function="internal">
        <lane id=":1306585778_3_0" index="0" disallow="tram rail_urban rail rail_electric rail_fast ship" speed="6.51" length="9.03" shape="692.14,1540.64 689.71,1540.16 688.02,1539.01 687.07,1537.21 686.85,1534.74"/>
    </edge>
    <edge id=":1306585778_4" function="internal">
        <lane id=":1306585778_4_0" index="0" disallow="tram rail_urban rail rail_electric rail_fast ship" speed="22.22" length="14.38" shape="692.14,1540.64 677.78,1539.97"/>
    </edge>
    <edge id=":1306585778_5" function="internal">
        <lane id=":1306585778_5_0" index="0" disallow="tram rail_urban rail rail_electric rail_fast ship" speed="3.65" length="2.34" shape="692.14,1540.64 690.90,1541.37 690.46,1542.15"/>
    </edge>
    <edge id=":1306585778_9" function="internal">
        <lane id=":1306585778_9_0" index="0" disallow="tram rail_urban rail rail_electric rail_fast ship" speed="3.65" length="2.34" shape="690.46,1542.15 690.81,1542.97 691.97,1543.83"/>
    </edge>
    <edge id=":1306585778_6" function="internal">
        <lane id=":1306585778_6_0" index="0" disallow="tram rail_urban rail rail_electric rail_fast ship" speed="22.22" length="14.33" shape="677.66,1543.17 691.97,1543.83"/>
    </edge>
    <edge id=":1306585778_7" function="internal">
        <lane id=":1306585778_7_0" index="0" disallow="tram rail_urban rail rail_electric rail_fast ship" speed="8.04" length="5.83" shape="677.66,1543.17 681.50,1542.77 683.23,1541.83"/>
    </edge>
    <edge id=":1306585778_8" function="internal">
        <lane id=":1306585778_8_0" index="0" disallow="tram rail_urban rail rail_electric rail_fast ship" speed="3.65" length="2.34" shape="677.66,1543.17 678.89,1542.42 679.32,1541.63"/>
    </edge>
    <edge id=":1306585778_10" function="internal">
        <lane id=":1306585778_10_0" index="0" disallow="tram rail_urban rail rail_electric rail_fast ship" speed="8.04" length="8.34" shape="683.23,1541.83 684.31,1541.23 686.10,1538.56 686.85,1534.74"/>
    </edge>
    <edge id=":1306585778_11" function="internal">
        <lane id=":1306585778_11_0" index="0" disallow="tram rail_urban rail rail_electric rail_fast ship" speed="3.65" length="2.34" shape="679.32,1541.63 678.95,1540.82 677.78,1539.97"/>
    </edge>
    <edge id=":1306586054_0" function="internal">
        <lane id=":1306586054_0_0" index="0" disallow="tram rail_urban rail rail_electric rail_fast ship" speed="3.65" length="4.67" shape="199.97,1517.75 198.73,1518.49 198.29,1519.27 198.64,1520.09 199.80,1520.95"/>
    </edge>
    <edge id=":1306586411_0" function="internal">
        <lane id=":1306586411_0_0" index="0" disallow="pedestrian bicycle tram rail_urban rail rail_electric rail_fast ship" speed="6.10" length="7.14" shape="896.69,1433.82 895.20,1432.60 893.64,1432.10 892.01,1432.31 890.32,1433.23"/>
    </edge>
    <edge id=":1306586411_1" function="internal">
        <lane id=":1306586411_1_0" index="0" disallow="pedestrian bicycle tram rail_urban rail rail_electric rail_fast ship" speed="3.91" length="2.38" shape="892.22,1435.80 892.79,1435.50 893.33,1435.43 893.85,1435.59 894.35,1436.00"/>
    </edge>
    <edge id=":1310368552_0" function="internal">
        <lane id=":1310368552_0_0" index="0" disallow="tram rail_urban rail rail_electric rail_fast ship" speed="3.65" length="4.67" shape="547.53,1987.90 548.26,1989.14 549.04,1989.58 549.86,1989.23 550.72,1988.07"/>
    </edge>
    <edge id=":1310368873_0" function="internal">
        <lane id=":1310368873_0_0" index="0" disallow="tram rail_urban rail rail_electric rail_fast ship" speed="3.65" length="4.67" shape="769.24,2054.49 770.39,2053.62 770.74,2052.79 770.29,2052.02 769.04,2051.30"/>
    </edge>
    <edge id=":1310368898_0" function="internal">
        <lane id=":1310368898_0_0" index="0" disallow="tram rail_urban rail rail_electric rail_fast ship" speed="6.53" length="9.07" shape="558.30,1948.79 555.85,1948.48 554.08,1947.45 552.99,1945.70 552.59,1943.24"/>
    </edge>
    <edge id=":1310368898_1" function="internal">
        <lane id=":1310368898_1_0" index="0" disallow="tram rail_urban rail rail_electric rail_fast ship" speed="13.89" length="14.58" shape="558.30,1948.79 543.72,1948.97"/>
    </edge>
    <edge id=":1310368898_2" function="internal">
        <lane id=":1310368898_2_0" index="0" disallow="tram rail_urban rail rail_electric rail_fast ship" speed="8.27" length="5.90" shape="558.30,1948.79 554.47,1949.41 552.75,1950.46"/>
    </edge>
    <edge id=":1310368898_3" function="internal">
        <lane id=":1310368898_3_0" index="0" disallow="tram rail_urban rail rail_electric rail_fast ship" speed="3.65" length="2.34" shape="558.30,1948.79 557.11,1949.61 556.72,1950.42"/>
    </edge>
    <edge id=":1310368898_16" function="internal">
        <lane id=":1310368898_16_0" index="0" disallow="tram rail_urban rail rail_electric rail_fast ship" speed="8.27" length="8.54" shape="552.75,1950.46 551.67,1951.12 549.90,1953.92 549.14,1957.82"/>
    </edge>
    <edge id=":1310368898_17" function="internal">
        <lane id=":1310368898_17_0" index="0" disallow="tram rail_urban rail rail_electric rail_fast ship" speed="3.65" length="2.34" shape="556.72,1950.42 557.14,1951.21 558.35,1951.99"/>
    </edge>
    <edge id=":1310368898_4" function="internal">
        <lane id=":1310368898_4_0" index="0" disallow="tram rail_urban rail rail_electric rail_fast ship" speed="6.83" length="9.54" shape="552.34,1957.99 552.83,1955.40 554.00,1953.54 555.84,1952.40 558.35,1951.99"/>
    </edge>
    <edge id=":1310368898_5" function="internal">
        <lane id=":1310368898_5_0" index="0" disallow="tram rail_urban rail rail_electric rail_fast ship" speed="13.89" length="14.75" shape="552.34,1957.99 552.59,1943.24"/>
    </edge>
    <edge id=":1310368898_6" function="internal">
        <lane id=":1310368898_6_0" index="0" disallow="tram rail_urban rail rail_electric rail_fast ship" speed="7.89" length="14.44" shape="552.34,1957.99 551.98,1954.01 550.43,1951.19 547.67,1949.51 543.72,1948.97"/>
    </edge>
    <edge id=":1310368898_7" function="internal">
        <lane id=":1310368898_7_0" index="0" disallow="tram rail_urban rail rail_electric rail_fast ship" speed="3.65" length="4.67" shape="552.34,1957.99 551.61,1956.75 550.83,1956.31 550.01,1956.66 549.14,1957.82"/>
    </edge>
    <edge id=":1310368898_8" function="internal">
        <lane id=":1310368898_8_0" index="0" disallow="tram rail_urban rail rail_electric rail_fast ship" speed="6.37" length="9.04" shape="543.75,1952.17 546.22,1952.51 547.95,1953.56 548.92,1955.33 549.14,1957.82"/>
    </edge>
    <edge id=":1310368898_9" function="internal">
        <lane id=":1310368898_9_0" index="0" disallow="tram rail_urban rail rail_electric rail_fast ship" speed="13.89" length="14.60" shape="543.75,1952.17 558.35,1951.99"/>
    </edge>
    <edge id=":1310368898_10" function="internal">
        <lane id=":1310368898_10_0" index="0" disallow="tram rail_urban rail rail_electric rail_fast ship" speed="8.02" length="6.07" shape="543.75,1952.17 547.68,1951.58 549.47,1950.50"/>
    </edge>
    <edge id=":1310368898_11" function="internal">
        <lane id=":1310368898_11_0" index="0" disallow="tram rail_urban rail rail_electric rail_fast ship" speed="3.65" length="2.34" shape="543.75,1952.17 544.94,1951.36 545.33,1950.56"/>
    </edge>
    <edge id=":1310368898_18" function="internal">
        <lane id=":1310368898_18_0" index="0" disallow="tram rail_urban rail rail_electric rail_fast ship" speed="8.02" length="8.30" shape="549.47,1950.50 550.47,1949.90 552.11,1947.12 552.59,1943.24"/>
    </edge>
    <edge id=":1310368898_19" function="internal">
        <lane id=":1310368898_19_0" index="0" disallow="tram rail_urban rail rail_electric rail_fast ship" speed="3.65" length="2.34" shape="545.33,1950.56 544.92,1949.76 543.72,1948.97"/>
    </edge>
    <edge id=":1310368898_12" function="internal">
        <lane id=":1310368898_12_0" index="0" disallow="tram rail_urban rail rail_electric rail_fast ship" speed="6.53" length="9.17" shape="549.39,1943.30 549.08,1945.76 548.03,1947.53 546.24,1948.60 543.72,1948.97"/>
    </edge>