<?xml version="1.0" encoding="UTF-8"?>

<!-- generated on 09/07/22 22:06:36 by Eclipse SUMO netedit Version 1.8.0
<configuration xmlns:xsi="http://www.w3.org/2001/XMLSchema-instance" xsi:noNamespaceSchemaLocation="http://sumo.dlr.de/xsd/netconvertConfiguration.xsd">

    <input>
        <sumo-net-file value="D:\veins\sumo-1.8.0\tools\2022-08-23-15-59-26\osm2.net.xml"/>
    </input>

    <output>
        <output-file value="D:\veins\sumo-1.8.0\tools\2022-08-23-15-59-26\osm2.net.xml"/>
        <output.street-names value="true"/>
    </output>

    <processing>
        <geometry.min-radius.fix.railways value="false"/>
        <geometry.max-grade.fix value="false"/>
        <offset.disable-normalization value="true"/>
        <lefthand value="false"/>
    </processing>

    <junctions>
        <no-turnarounds value="true"/>
        <junctions.corner-detail value="5"/>
        <junctions.limit-turn-speed value="5.5"/>
        <rectangular-lane-cut value="false"/>
    </junctions>

    <pedestrian>
        <walkingareas value="false"/>
    </pedestrian>

    <netedit>
        <route-files value="D:\veins\sumo-1.8.0\tools\2022-08-23-15-59-26\2.2.rou.xml"/>
    </netedit>

    <report>
        <aggregate-warnings value="5"/>
    </report>

</configuration>
-->

<routes xmlns:xsi="http://www.w3.org/2001/XMLSchema-instance" xsi:noNamespaceSchemaLocation="http://sumo.dlr.de/xsd/routes_file.xsd">
    <flow id="flow_0" begin="0.00" from="35203283#1-AddedOffRampEdge" to="206800724#1" via="208847177#10-AddedOnRampEdge 208847177#10 208847177#10-AddedOffRampEdge 208847177#11 208847177#14-AddedOnRampEdge 208847177#14 30321779#5 30321779#1 35141001#0 35141314#0 206800750 206800743#1"
number=
"10"
period=
"10.00"
/>
</routes>
