<?xml version="1.0" encoding="UTF-8"?>

<!-- generated on 10/18/22 18:05:34 by Eclipse SUMO netedit Version 1.8.0
<configuration xmlns:xsi="http://www.w3.org/2001/XMLSchema-instance" xsi:noNamespaceSchemaLocation="http://sumo.dlr.de/xsd/netconvertConfiguration.xsd">

    <input>
        <sumo-net-file value="D:\veins\sumo-1.8.0\tools\cross\cross.net.xml"/>
    </input>

    <output>
        <output-file value="D:\veins\sumo-1.8.0\tools\cross\cross.net.xml"/>
    </output>

    <processing>
        <geometry.min-radius.fix.railways value="false"/>
        <geometry.max-grade.fix value="false"/>
        <offset.disable-normalization value="true"/>
        <lefthand value="false"/>
    </processing>

    <junctions>
        <no-turnarounds value="true"/>
        <junctions.corner-detail value="5"/>
        <junctions.limit-turn-speed value="5.5"/>
        <rectangular-lane-cut value="false"/>
    </junctions>

    <pedestrian>
        <walkingareas value="false"/>
    </pedestrian>

    <netedit>
        <route-files value="D:\veins\sumo-1.8.0\tools\cross\fourfold8.rou.xml"/>
    </netedit>

    <report>
        <aggregate-warnings value="5"/>
    </report>

</configuration>
-->

<routes xmlns:xsi="http://www.w3.org/2001/XMLSchema-instance" xsi:noNamespaceSchemaLocation="http://sumo.dlr.de/xsd/routes_file.xsd">
    <flow id="flow_0" begin="0.00" from="gneE1" to="gneE10" number="10" period="10.00"/>
    <flow id="flow_1" begin="0.00" from="gneE14" to="gneE10" number="10" period="10.00"/>
    <flow id="flow_2" begin="0.00" from="gneE3" to="gneE15" number="10" period="10.00"/>
    <flow id="flow_3" begin="0.00" from="gneE11" to="gneE15" number="10" period="10.00"/>
</routes>
