<?xml version="1.0" encoding="UTF-8"?>

<!-- generated on 11/02/22 12:16:24 by Eclipse SUMO netedit Version 1.8.0
<configuration xmlns:xsi="http://www.w3.org/2001/XMLSchema-instance" xsi:noNamespaceSchemaLocation="http://sumo.dlr.de/xsd/netconvertConfiguration.xsd">

    <output>
        <output-file value="D:\veins\sumo-1.8.0\tools\8direction\8direction.net.xml"/>
    </output>

    <processing>
        <offset.disable-normalization value="true"/>
    </processing>

    <junctions>
        <no-turnarounds value="true"/>
    </junctions>

    <report>
        <aggregate-warnings value="5"/>
    </report>

</configuration>
-->

<net version="1.6" junctionCornerDetail="5" limitTurnSpeed="5.50" xmlns:xsi="http://www.w3.org/2001/XMLSchema-instance" xsi:noNamespaceSchemaLocation="http://sumo.dlr.de/xsd/net_file.xsd">

    <location netOffset="0.00,0.00" convBoundary="-138.45,-154.43,619.00,397.48" origBoundary="10000000000.00,10000000000.00,-10000000000.00,-10000000000.00" projParameter="!"/>

    <edge id=":gneJ1_0" function="internal">
        <lane id=":gneJ1_0_0" index="0" speed="5.79" length="10.70" shape="257.32,128.47 256.89,125.47 255.61,124.18 253.47,124.59 250.48,126.71"/>
    </edge>
    <edge id=":gneJ1_1" function="internal">
        <lane id=":gneJ1_1_0" index="0" speed="8.71" length="17.02" shape="257.32,128.47 256.61,124.26 254.45,121.26 250.87,119.46 245.85,118.86"/>
    </edge>
    <edge id=":gneJ1_2" function="internal">
        <lane id=":gneJ1_2_0" index="0" speed="13.77" length="21.24" shape="257.32,128.47 256.72,123.42 254.93,118.70 251.93,114.33 247.74,110.30"/>
    </edge>
    <edge id=":gneJ1_3" function="internal">
        <lane id=":gneJ1_3_0" index="0" speed="13.89" length="21.90" shape="257.32,128.47 257.32,106.57"/>
    </edge>
    <edge id=":gneJ1_4" function="internal">
        <lane id=":gneJ1_4_0" index="0" speed="13.89" length="24.27" shape="257.32,128.47 258.01,122.68 260.09,117.31 263.56,112.35 268.40,107.81"/>
    </edge>
    <edge id=":gneJ1_5" function="internal">
        <lane id=":gneJ1_5_0" index="0" speed="9.92" length="22.36" shape="257.32,128.47 258.25,122.86 261.04,118.86 265.70,116.46 272.21,115.66"/>
    </edge>
    <edge id=":gneJ1_6" function="internal">
        <lane id=":gneJ1_6_0" index="0" speed="6.54" length="14.26" shape="257.32,128.47 258.73,125.67 262.06,123.78 265.98,123.21 269.13,124.33"/>
    </edge>
    <edge id=":gneJ1_7" function="internal">
        <lane id=":gneJ1_7_0" index="0" speed="5.67" length="10.32" shape="266.98,126.70 264.15,124.62 262.14,124.22 260.93,125.50 260.52,128.47"/>
    </edge>
    <edge id=":gneJ1_8" function="internal">
        <lane id=":gneJ1_8_0" index="0" speed="9.45" length="18.36" shape="266.98,126.70 262.92,123.96 258.81,123.05 254.67,123.96 250.48,126.71"/>
    </edge>
    <edge id=":gneJ1_9" function="internal">
        <lane id=":gneJ1_9_0" index="0" speed="13.89" length="22.77" shape="266.98,126.70 262.82,124.06 256.90,121.52 250.74,119.61 245.85,118.86"/>
    </edge>
    <edge id=":gneJ1_10" function="internal">
        <lane id=":gneJ1_10_0" index="0" speed="13.89" length="25.28" shape="266.98,126.70 247.74,110.30"/>
    </edge>
    <edge id=":gneJ1_11" function="internal">
        <lane id=":gneJ1_11_0" index="0" speed="13.89" length="23.00" shape="266.98,126.70 262.75,122.17 259.74,117.30 257.92,112.10 257.32,106.57"/>
    </edge>
    <edge id=":gneJ1_12" function="internal">
        <lane id=":gneJ1_12_0" index="0" speed="9.39" length="22.56" shape="266.98,126.70 263.12,121.95 262.07,117.21 263.83,112.50 268.40,107.81"/>
    </edge>
    <edge id=":gneJ1_13" function="internal">
        <lane id=":gneJ1_13_0" index="0" speed="7.57" length="20.61" shape="266.98,126.70 262.73,121.87 262.18,118.42 265.34,116.35 272.21,115.66"/>
    </edge>
    <edge id=":gneJ1_14" function="internal">
        <lane id=":gneJ1_14_0" index="0" speed="5.60" length="10.52" shape="272.21,118.86 268.59,119.20 266.87,120.23 267.05,121.94 269.13,124.33"/>
    </edge>
    <edge id=":gneJ1_15" function="internal">
        <lane id=":gneJ1_15_0" index="0" speed="8.76" length="17.20" shape="272.21,118.86 267.10,119.46 263.44,121.26 261.25,124.26 260.52,128.47"/>
    </edge>
    <edge id=":gneJ1_16" function="internal">
        <lane id=":gneJ1_16_0" index="0" speed="13.89" length="23.32" shape="272.21,118.86 267.24,119.62 260.88,121.55 254.76,124.10 250.48,126.71"/>
    </edge>
    <edge id=":gneJ1_17" function="internal">
        <lane id=":gneJ1_17_0" index="0" speed="13.89" length="26.36" shape="272.21,118.86 245.85,118.86"/>
    </edge>
    <edge id=":gneJ1_18" function="internal">
        <lane id=":gneJ1_18_0" index="0" speed="13.89" length="7.88" shape="272.21,118.86 266.82,117.96 264.50,117.26"/>
    </edge>
    <edge id=":gneJ1_19" function="internal">
        <lane id=":gneJ1_19_0" index="0" speed="9.83" length="8.43" shape="272.21,118.86 265.70,118.09 264.02,117.26"/>
    </edge>
    <edge id=":gneJ1_20" function="internal">
        <lane id=":gneJ1_20_0" index="0" speed="7.55" length="8.58" shape="272.21,118.86 265.25,118.17 263.95,117.26"/>
    </edge>
    <edge id=":gneJ1_56" function="internal">
        <lane id=":gneJ1_56_0" index="0" speed="13.89" length="18.21" shape="264.50,117.26 259.56,115.76 252.50,112.96 247.74,110.30"/>
    </edge>
    <edge id=":gneJ1_57" function="internal">
        <lane id=":gneJ1_57_0" index="0" speed="9.83" length="13.52" shape="264.02,117.26 261.04,115.79 258.25,111.95 257.32,106.57"/>
    </edge>
    <edge id=":gneJ1_58" function="internal">
        <lane id=":gneJ1_58_0" index="0" speed="7.55" length="12.63" shape="263.95,117.26 262.29,116.10 263.34,112.65 268.40,107.81"/>
    </edge>
    <edge id=":gneJ1_21" function="internal">
        <lane id=":gneJ1_21_0" index="0" speed="5.46" length="10.22" shape="270.38,110.33 267.94,112.66 267.43,114.33 268.85,115.33 272.21,115.66"/>
    </edge>
    <edge id=":gneJ1_22" function="internal">
        <lane id=":gneJ1_22_0" index="0" speed="8.16" length="16.72" shape="270.38,110.33 266.93,113.84 265.58,117.34 266.31,120.84 269.13,124.33"/>
    </edge>
    <edge id=":gneJ1_23" function="internal">
        <lane id=":gneJ1_23_0" index="0" speed="13.66" length="21.37" shape="270.38,110.33 266.06,114.36 262.99,118.72 261.14,123.42 260.52,128.47"/>
    </edge>
    <edge id=":gneJ1_24" function="internal">
        <lane id=":gneJ1_24_0" index="0" speed="13.89" length="25.77" shape="270.38,110.33 250.48,126.71"/>
    </edge>
    <edge id=":gneJ1_25" function="internal">
        <lane id=":gneJ1_25_0" index="0" speed="13.89" length="26.13" shape="270.38,110.33 265.58,112.97 258.51,115.75 251.24,117.96 245.85,118.86"/>
    </edge>
    <edge id=":gneJ1_26" function="internal">
        <lane id=":gneJ1_26_0" index="0" speed="11.41" length="24.71" shape="270.38,110.33 264.66,113.70 258.98,114.81 253.34,113.68 247.74,110.30"/>
    </edge>
    <edge id=":gneJ1_27" function="internal">
        <lane id=":gneJ1_27_0" index="0" speed="6.88" length="15.40" shape="270.38,110.33 266.83,111.56 262.51,111.20 258.86,109.46 257.32,106.57"/>
    </edge>
    <edge id=":gneJ1_28" function="internal">
        <lane id=":gneJ1_28_0" index="0" speed="6.02" length="11.41" shape="260.52,106.57 261.01,109.43 262.49,110.58 264.96,110.05 268.40,107.81"/>
    </edge>
    <edge id=":gneJ1_29" function="internal">
        <lane id=":gneJ1_29_0" index="0" speed="8.66" length="16.81" shape="260.52,106.57 261.25,110.55 263.44,113.39 267.10,115.09 272.21,115.66"/>
    </edge>
    <edge id=":gneJ1_30" function="internal">
        <lane id=":gneJ1_30_0" index="0" speed="13.89" length="20.32" shape="260.52,106.57 261.06,111.42 262.67,116.00 265.36,120.30 269.13,124.33"/>
    </edge>
    <edge id=":gneJ1_31" function="internal">
        <lane id=":gneJ1_31_0" index="0" speed="13.89" length="21.90" shape="260.52,106.57 260.52,128.47"/>
    </edge>
    <edge id=":gneJ1_32" function="internal">
        <lane id=":gneJ1_32_0" index="0" speed="13.89" length="23.21" shape="260.52,106.57 259.89,112.11 258.01,117.31 254.87,122.18 250.48,126.71"/>
    </edge>
    <edge id=":gneJ1_33" function="internal">
        <lane id=":gneJ1_33_0" index="0" speed="9.79" length="21.77" shape="260.52,106.57 259.60,111.95 256.85,115.79 252.27,118.09 245.85,118.86"/>
    </edge>
    <edge id=":gneJ1_34" function="internal">
        <lane id=":gneJ1_34_0" index="0" speed="6.80" length="15.11" shape="260.52,106.57 259.01,109.42 255.43,111.15 251.19,111.52 247.74,110.30"/>
    </edge>
    <edge id=":gneJ1_35" function="internal">
        <lane id=":gneJ1_35_0" index="0" speed="5.93" length="11.11" shape="249.75,107.81 253.06,110.02 255.43,110.55 256.85,109.40 257.32,106.57"/>
    </edge>
    <edge id=":gneJ1_36" function="internal">
        <lane id=":gneJ1_36_0" index="0" speed="10.40" length="20.37" shape="249.75,107.81 254.36,110.59 259.01,111.51 263.69,110.59 268.40,107.81"/>
    </edge>
    <edge id=":gneJ1_37" function="internal">
        <lane id=":gneJ1_37_0" index="0" speed="13.89" length="23.98" shape="249.75,107.81 254.20,110.36 260.56,112.91 267.14,114.87 272.21,115.66"/>
    </edge>
    <edge id=":gneJ1_38" function="internal">
        <lane id=":gneJ1_38_0" index="0" speed="13.89" length="25.46" shape="249.75,107.81 269.13,124.33"/>
    </edge>
    <edge id=":gneJ1_39" function="internal">
        <lane id=":gneJ1_39_0" index="0" speed="13.89" length="24.10" shape="249.75,107.81 254.46,112.36 257.83,117.32 259.85,122.69 260.52,128.47"/>
    </edge>
    <edge id=":gneJ1_40" function="internal">
        <lane id=":gneJ1_40_0" index="0" speed="9.37" length="22.56" shape="249.75,107.81 254.17,112.52 255.76,117.24 254.53,121.96 250.48,126.71"/>
    </edge>
    <edge id=":gneJ1_41" function="internal">
        <lane id=":gneJ1_41_0" index="0" speed="7.53" length="20.94" shape="249.75,107.81 254.65,112.64 255.63,116.10 252.70,118.17 245.85,118.86"/>
    </edge>
    <edge id=":gneJ1_42" function="internal">
        <lane id=":gneJ1_42_0" index="0" speed="5.46" length="10.15" shape="245.85,115.66 249.17,115.32 250.59,114.32 250.11,112.65 247.74,110.30"/>
    </edge>
    <edge id=":gneJ1_43" function="internal">
        <lane id=":gneJ1_43_0" index="0" speed="8.62" length="16.62" shape="245.85,115.66 250.87,115.09 254.45,113.39 256.60,110.55 257.32,106.57"/>
    </edge>
    <edge id=":gneJ1_44" function="internal">
        <lane id=":gneJ1_44_0" index="0" speed="13.89" length="24.06" shape="245.85,115.66 250.93,114.87 257.53,112.89 263.92,110.34 268.40,107.81"/>
    </edge>
    <edge id=":gneJ1_45" function="internal">
        <lane id=":gneJ1_45_0" index="0" speed="13.89" length="26.36" shape="245.85,115.66 272.21,115.66"/>
    </edge>
    <edge id=":gneJ1_46" function="internal">
        <lane id=":gneJ1_46_0" index="0" speed="13.89" length="7.66" shape="245.85,115.66 251.08,116.54 253.33,117.26"/>
    </edge>
    <edge id=":gneJ1_47" function="internal">
        <lane id=":gneJ1_47_0" index="0" speed="9.88" length="8.19" shape="245.85,115.66 252.27,116.46 253.80,117.26"/>
    </edge>
    <edge id=":gneJ1_48" function="internal">
        <lane id=":gneJ1_48_0" index="0" speed="7.54" length="8.45" shape="245.85,115.66 252.65,116.35 253.98,117.26"/>
    </edge>
    <edge id=":gneJ1_59" function="internal">
        <lane id=":gneJ1_59_0" index="0" speed="13.89" length="17.38" shape="253.33,117.26 257.97,118.74 264.63,121.56 269.13,124.33"/>
    </edge>
    <edge id=":gneJ1_60" function="internal">
        <lane id=":gneJ1_60_0" index="0" speed="9.88" length="13.99" shape="253.80,117.26 256.85,118.86 259.61,122.86 260.52,128.47"/>
    </edge>
    <edge id=":gneJ1_61" function="internal">
        <lane id=":gneJ1_61_0" index="0" speed="7.54" length="12.18" shape="253.98,117.26 255.69,118.42 254.96,121.87 250.48,126.71"/>
    </edge>
    <edge id=":gneJ1_49" function="internal">
        <lane id=":gneJ1_49_0" index="0" speed="5.53" length="10.30" shape="248.38,124.29 250.57,121.91 250.88,120.22 249.30,119.20 245.85,118.86"/>
    </edge>
    <edge id=":gneJ1_50" function="internal">
        <lane id=":gneJ1_50_0" index="0" speed="8.14" length="16.70" shape="248.38,124.29 251.36,120.80 252.24,117.30 251.04,113.80 247.74,110.30"/>
    </edge>
    <edge id=":gneJ1_51" function="internal">
        <lane id=":gneJ1_51_0" index="0" speed="13.89" length="20.47" shape="248.38,124.29 252.29,120.27 255.09,115.98 256.76,111.41 257.32,106.57"/>
    </edge>
    <edge id=":gneJ1_52" function="internal">
        <lane id=":gneJ1_52_0" index="0" speed="13.89" length="25.93" shape="248.38,124.29 268.40,107.81"/>
    </edge>
    <edge id=":gneJ1_53" function="internal">
        <lane id=":gneJ1_53_0" index="0" speed="13.89" length="25.54" shape="248.38,124.29 252.99,121.56 259.84,118.74 266.91,116.55 272.21,115.66"/>
    </edge>
    <edge id=":gneJ1_54" function="internal">
        <lane id=":gneJ1_54_0" index="0" speed="10.55" length="23.08" shape="248.38,124.29 253.64,120.85 258.85,119.71 264.01,120.87 269.13,124.33"/>
    </edge>
    <edge id=":gneJ1_55" function="internal">
        <lane id=":gneJ1_55_0" index="0" speed="6.64" length="14.62" shape="248.38,124.29 251.64,123.16 255.66,123.72 259.08,125.61 260.52,128.47"/>
    </edge>

    <edge id="gneE0" from="gneJ0" to="gneJ1" priority="-1">
        <lane id="gneE0_0" index="0" speed="13.89" length="384.30" shape="-138.45,115.66 245.85,115.66"/>
    </edge>
    <edge id="gneE1" from="gneJ1" to="gneJ2" priority="-1">
        <lane id="gneE1_0" index="0" speed="13.89" length="346.79" shape="272.21,115.66 619.00,115.66"/>
    </edge>
    <edge id="gneE10" from="gneJ1" to="gneJ7" priority="-1">
        <lane id="gneE10_0" index="0" speed="13.89" length="326.46" shape="268.40,107.81 525.59,-93.27"/>
    </edge>
    <edge id="gneE11" from="gneJ7" to="gneJ1" priority="-1">
        <lane id="gneE11_0" index="0" speed="13.89" length="326.46" shape="527.56,-90.74 270.38,110.33"/>
    </edge>
    <edge id="gneE12" from="gneJ1" to="gneJ8" priority="-1">
        <lane id="gneE12_0" index="0" speed="13.89" length="348.52" shape="269.13,124.33 527.65,358.06"/>
    </edge>
    <edge id="gneE13" from="gneJ8" to="gneJ1" priority="-1">
        <lane id="gneE13_0" index="0" speed="13.89" length="348.52" shape="525.50,360.43 266.98,126.70"/>
    </edge>
    <edge id="gneE14" from="gneJ1" to="gneJ9" priority="-1">
        <lane id="gneE14_0" index="0" speed="13.89" length="337.65" shape="250.48,126.71 -4.54,348.01"/>
    </edge>
    <edge id="gneE15" from="gneJ9" to="gneJ1" priority="-1">
        <lane id="gneE15_0" index="0" speed="13.89" length="337.65" shape="-6.64,345.59 248.38,124.29"/>
    </edge>
    <edge id="gneE16" from="gneJ1" to="gneJ10" priority="-1">
        <lane id="gneE16_0" index="0" speed="13.89" length="362.60" shape="247.74,110.30 -34.60,-117.21"/>
    </edge>
    <edge id="gneE17" from="gneJ10" to="gneJ1" priority="-1">
        <lane id="gneE17_0" index="0" speed="13.89" length="362.60" shape="-32.59,-119.70 249.75,107.81"/>
    </edge>
    <edge id="gneE2" from="gneJ2" to="gneJ1" priority="-1">
        <lane id="gneE2_0" index="0" speed="13.89" length="346.79" shape="619.00,118.86 272.21,118.86"/>
    </edge>
    <edge id="gneE3" from="gneJ1" to="gneJ0" priority="-1">
        <lane id="gneE3_0" index="0" speed="13.89" length="384.30" shape="245.85,118.86 -138.45,118.86"/>
    </edge>
    <edge id="gneE4" from="gneJ1" to="gneJ3" priority="-1">
        <lane id="gneE4_0" index="0" speed="13.89" length="269.01" shape="260.52,128.47 260.54,397.48"/>
    </edge>
    <edge id="gneE5" from="gneJ3" to="gneJ1" priority="-1">
        <lane id="gneE5_0" index="0" speed="13.89" length="269.01" shape="257.34,397.48 257.32,128.47"/>
    </edge>
    <edge id="gneE7" from="gneJ1" to="gneJ5" priority="-1">
        <lane id="gneE7_0" index="0" speed="13.89" length="261.00" shape="257.32,106.57 257.30,-154.43"/>
    </edge>
    <edge id="gneE9" from="gneJ5" to="gneJ1" priority="-1">
        <lane id="gneE9_0" index="0" speed="13.89" length="261.00" shape="260.50,-154.43 260.52,106.57"/>
    </edge>

    <junction id="gneJ0" type="dead_end" x="-138.45" y="117.26" incLanes="gneE3_0" intLanes="" shape="-138.45,117.26 -138.45,120.46 -138.45,117.26"/>
    <junction id="gneJ1" type="priority" x="258.92" y="117.26" incLanes="gneE5_0 gneE13_0 gneE2_0 gneE11_0 gneE9_0 gneE17_0 gneE0_0 gneE15_0" intLanes=":gneJ1_0_0 :gneJ1_1_0 :gneJ1_2_0 :gneJ1_3_0 :gneJ1_4_0 :gneJ1_5_0 :gneJ1_6_0 :gneJ1_7_0 :gneJ1_8_0 :gneJ1_9_0 :gneJ1_10_0 :gneJ1_11_0 :gneJ1_12_0 :gneJ1_13_0 :gneJ1_14_0 :gneJ1_15_0 :gneJ1_16_0 :gneJ1_17_0 :gneJ1_56_0 :gneJ1_57_0 :gneJ1_58_0 :gneJ1_21_0 :gneJ1_22_0 :gneJ1_23_0 :gneJ1_24_0 :gneJ1_25_0 :gneJ1_26_0 :gneJ1_27_0 :gneJ1_28_0 :gneJ1_29_0 :gneJ1_30_0 :gneJ1_31_0 :gneJ1_32_0 :gneJ1_33_0 :gneJ1_34_0 :gneJ1_35_0 :gneJ1_36_0 :gneJ1_37_0 :gneJ1_38_0 :gneJ1_39_0 :gneJ1_40_0 :gneJ1_41_0 :gneJ1_42_0 :gneJ1_43_0 :gneJ1_44_0 :gneJ1_45_0 :gneJ1_59_0 :gneJ1_60_0 :gneJ1_61_0 :gneJ1_49_0 :gneJ1_50_0 :gneJ1_51_0 :gneJ1_52_0 :gneJ1_53_0 :gneJ1_54_0 :gneJ1_55_0" shape="255.72,128.47 262.12,128.47 262.54,126.62 263.07,126.32 263.80,126.43 264.75,126.95 265.91,127.89 270.20,123.14 269.10,121.65 269.22,121.13 269.77,120.76 270.77,120.53 272.21,120.46 272.21,114.06 270.34,113.78 270.00,113.44 270.05,112.96 270.51,112.35 271.36,111.59 267.42,106.55 264.48,108.40 263.45,108.63 262.71,108.40 262.27,107.72 262.12,106.57 255.72,106.57 255.17,108.35 254.48,108.57 253.51,108.35 252.27,107.68 250.75,106.57 246.74,111.55 248.02,112.94 248.07,113.43 247.73,113.78 246.99,113.99 245.85,114.06 245.85,120.46 248.02,120.75 248.47,121.11 248.51,121.62 248.13,122.28 247.33,123.08 251.53,127.91 253.86,126.36 254.67,126.23 255.26,126.54 255.61,127.29">
        <request index="0"  response="00000001000000000000000000000001000000010000000000000000" foes="00000001000000010000000100000001000000010000000100000000" cont="0"/>
        <request index="1"  response="11111111000000000000000000000001000000110000000000000000" foes="11111111000000110000001100000011000000110000001100000000" cont="0"/>
        <request index="2"  response="11111100111111000000000000000001000001110000010000000000" foes="11111100111111110000011100000111000001110000011100000000" cont="0"/>
        <request index="3"  response="00010000111110000100000000000000000011110000000000000000" foes="11111000111110001111111100001111000011110000111100000000" cont="0"/>
        <request index="4"  response="11110000111100001111000011110001000111110000010000000000" foes="11110000111100001111000011111111000111110001111100000000" cont="0"/>
        <request index="5"  response="11100000111000001110000011100000111111110000010000000000" foes="11100000111000001110000011100000111111110011111100000000" cont="0"/>
        <request index="6"  response="11000000110000001100000011000000110000001100010000000000" foes="11000000110000001100000011000000110000001111111100000000" cont="0"/>
        <request index="7"  response="00000000100000000000000010000000000000001000000000000000" foes="10000000100000001000000010000000100000001000000000000000" cont="0"/>
        <request index="8"  response="00000001100000000000000010000001000000011000000001111111" foes="10000001100000011000000110000001100000011000000001111111" cont="0"/>
        <request index="9"  response="01111111100000000000000010000001000000111000000001111110" foes="01111111100000111000001110000011100000111000000001111110" cont="0"/>
        <request index="10" response="00010000011111000000000000000000000001111000000000001000" foes="01111100011111111000011110000111100001111000000001111100" cont="0"/>
        <request index="11" response="01111000011110000111100010000001000011111000000001111000" foes="01111000011110000111111110001111100011111000000001111000" cont="0"/>
        <request index="12" response="01110000011100000111000001110001000111111000000001110000" foes="01110000011100000111000001111111100111111000000001110000" cont="0"/>
        <request index="13" response="01100000011000000110000001100000011111111000000001100000" foes="01100000011000000110000001100000011111111000000001100000" cont="0"/>
        <request index="14" response="00000000000000000000000000000000000000000000000000000000" foes="01000000010000000100000001000000010000000000000001000000" cont="0"/>
        <request index="15" response="00000000000000000000000000000000000000000000000000000000" foes="11000000110000001100000011000000110000000011111111000000" cont="0"/>
        <request index="16" response="00000000000000000000000000000000000000000000000000000000" foes="11000001110000011100000111000001110000000011111100111111" cont="0"/>
        <request index="17" response="00000000000000000000000000000000000000000000000000000000" foes="00111111110000111100001111000011110000000011111000111110" cont="0"/>
        <request index="18" response="00000000001111000000000000000000000000000000000000000000" foes="00111100001111111100011111000111110000000011110000111100" cont="1"/>
        <request index="19" response="00000000001110000000000000000000000000000000000000000000" foes="00111000001110000011111111001111110000000011100000111000" cont="1"/>
        <request index="20" response="00000000001100000000000000000000000000000000000000000000" foes="00110000001100000011000000111111110000000011000000110000" cont="1"/>
        <request index="21" response="00000000001000000000000000000000000000000000000000000000" foes="00100000001000000010000000100000000000000010000000100000" cont="0"/>
        <request index="22" response="00000000011000000100000000000000000111111100000000000000" foes="01100000011000000110000001100000000111111110000001100000" cont="0"/>
        <request index="23" response="00000000111000000100000010000000000111111001111110000000" foes="11100000111000001110000011100000000111111001111111100000" cont="0"/>
        <request index="24" response="00000001111000000000000000000000000111110000010000001000" foes="11100001111000011110000111100000000111110001111100011111" cont="0"/>
        <request index="25" response="00011111111000000100000010000000000111100001111000011110" foes="00011111111000111110001111100000000111100001111000011110" cont="0"/>
        <request index="26" response="00011100000111000100000010000000000111000001110000011100" foes="00011100000111111110011111100000000111000001110000011100" cont="0"/>
        <request index="27" response="00011000000110000001100010000000000110000001100000011000" foes="00011000000110000001111111100000000110000001100000011000" cont="0"/>
        <request index="28" response="00010000000100000000000000000000000100000000000000000000" foes="00010000000100000001000000000000000100000001000000010000" cont="0"/>
        <request index="29" response="00010000001100000000000000001111111100000000000000000000" foes="00110000001100000011000000001111111100000011000000110000" cont="0"/>
        <request index="30" response="00010000011100000100000000001111110011111100000000000000" foes="01110000011100000111000000001111110011111111000001110000" cont="0"/>
        <request index="31" response="00000000111100000000000000000001000011111000010000000000" foes="11110000111100001111000000001111100011111000111111110000" cont="0"/>
        <request index="32" response="00010001111100000100000000001111000011110000111100001111" foes="11110001111100011111000000001111000011110000111100001111" cont="0"/>
        <request index="33" response="00001111111100000100000000001110000011100000111000001110" foes="00001111111100111111000000001110000011100000111000001110" cont="0"/>
        <request index="34" response="00001100000011000100000000001100000011000000110000001100" foes="00001100000011111111000000001100000011000000110000001100" cont="0"/>
        <request index="35" response="00000000000010000000000000000000000010000000000000001000" foes="00001000000010000000000000001000000010000000100000001000" cont="0"/>
        <request index="36" response="00010000000110000000011111110000000110000000000000001000" foes="00011000000110000000011111111000000110000001100000011000" cont="0"/>
        <request index="37" response="00010000001110000000011111100111111110000000000000001000" foes="00111000001110000000011111100111111110000011100000111000" cont="0"/>
        <request index="38" response="00000000011110000000000010000001000001111100000000000000" foes="01111000011110000000011111000111110001111111100001111000" cont="0"/>
        <request index="39" response="00010000111110000000011110000111100001111000011110001000" foes="11111000111110000000011110000111100001111000011111111000" cont="0"/>
        <request index="40" response="00010001111110000000011100000111000001110000011100000111" foes="11111001111110000000011100000111000001110000011100000111" cont="0"/>
        <request index="41" response="00000111111110000000011000000110000001100000011000000110" foes="00000111111110000000011000000110000001100000011000000110" cont="0"/>
        <request index="42" response="00000000000000000000000000000000000000000000000000000000" foes="00000100000000000000010000000100000001000000010000000100" cont="0"/>
        <request index="43" response="00000000000000000000000000000000000000000000000000000000" foes="00001100000000111111110000001100000011000000110000001100" cont="0"/>
        <request index="44" response="00000000000000000000000000000000000000000000000000000000" foes="00011100000000111111001111111100000111000001110000011100" cont="0"/>
        <request index="45" response="00000000000000000000000000000000000000000000000000000000" foes="00111100000000111110001111100011111111000011110000111100" cont="0"/>
        <request index="46" response="00000000000000000000000000000000000000111100000000000000" foes="01111100000000111100001111000011110000111111110001111100" cont="1"/>
        <request index="47" response="00000000000000000000000000000000000000111000000000000000" foes="11111100000000111000001110000011100000111000001111111100" cont="1"/>
        <request index="48" response="00000000000000000000000000000000000000110000000000000000" foes="11111100000000110000001100000011000000110000001100000011" cont="1"/>
        <request index="49" response="00000000000000000000000000000000000000100000000000000000" foes="00000000000000100000001000000010000000100000001000000010" cont="0"/>
        <request index="50" response="00000001111111000000000000000000000001100000010000000000" foes="00000001111111100000011000000110000001100000011000000110" cont="0"/>
        <request index="51" response="00000001111110011111100000000000000011100000010000001000" foes="00000001111110011111111000001110000011100000111000001110" cont="0"/>
        <request index="52" response="00000001111100000100000010000000000111100000000000000000" foes="00000001111100011111000111111110000111100001111000011110" cont="0"/>
        <request index="53" response="00000001111000011110000111100001111111100000010000001000" foes="00000001111000011110000111100001111111100011111000111110" cont="0"/>
        <request index="54" response="00000001110000011100000111000001110000011100010000001000" foes="00000001110000011100000111000001110000011111111001111110" cont="0"/>
        <request index="55" response="00000001100000011000000110000001100000011000000110001000" foes="00000001100000011000000110000001100000011000000111111110" cont="0"/>
    </junction>
    <junction id="gneJ10" type="dead_end" x="-33.60" y="-118.46" incLanes="gneE16_0" intLanes="" shape="-33.60,-118.46 -35.60,-115.97 -33.60,-118.46"/>
    <junction id="gneJ2" type="dead_end" x="619.00" y="117.26" incLanes="gneE1_0" intLanes="" shape="619.00,117.26 619.00,114.06 619.00,117.26"/>
    <junction id="gneJ3" type="dead_end" x="258.94" y="397.48" incLanes="gneE4_0" intLanes="" shape="258.94,397.48 262.14,397.48 258.94,397.48"/>
    <junction id="gneJ5" type="dead_end" x="258.90" y="-154.43" incLanes="gneE7_0" intLanes="" shape="258.90,-154.43 255.70,-154.43 258.90,-154.43"/>
    <junction id="gneJ7" type="dead_end" x="526.58" y="-92.00" incLanes="gneE10_0" intLanes="" shape="526.58,-92.00 524.61,-94.53 526.58,-92.00"/>
    <junction id="gneJ8" type="dead_end" x="526.58" y="359.25" incLanes="gneE12_0" intLanes="" shape="526.58,359.25 528.72,356.87 526.58,359.25"/>
    <junction id="gneJ9" type="dead_end" x="-5.59" y="346.80" incLanes="gneE14_0" intLanes="" shape="-5.59,346.80 -3.49,349.22 -5.59,346.80"/>

    <junction id=":gneJ1_56_0" type="internal" x="264.50" y="117.26" incLanes=":gneJ1_18_0 gneE0_0" intLanes=":gneJ1_2_0 :gneJ1_3_0 :gneJ1_4_0 :gneJ1_5_0 :gneJ1_10_0 :gneJ1_11_0 :gneJ1_12_0 :gneJ1_13_0 :gneJ1_22_0 :gneJ1_23_0 :gneJ1_24_0 :gneJ1_25_0 :gneJ1_26_0 :gneJ1_30_0 :gneJ1_31_0 :gneJ1_32_0 :gneJ1_33_0 :gneJ1_34_0 :gneJ1_38_0 :gneJ1_39_0 :gneJ1_40_0 :gneJ1_41_0 :gneJ1_42_0 :gneJ1_43_0 :gneJ1_44_0 :gneJ1_45_0 :gneJ1_50_0 :gneJ1_51_0 :gneJ1_52_0 :gneJ1_53_0"/>
    <junction id=":gneJ1_57_0" type="internal" x="264.02" y="117.26" incLanes=":gneJ1_19_0 gneE0_0" intLanes=":gneJ1_3_0 :gneJ1_4_0 :gneJ1_5_0 :gneJ1_11_0 :gneJ1_12_0 :gneJ1_13_0 :gneJ1_22_0 :gneJ1_23_0 :gneJ1_24_0 :gneJ1_25_0 :gneJ1_26_0 :gneJ1_27_0 :gneJ1_30_0 :gneJ1_31_0 :gneJ1_32_0 :gneJ1_33_0 :gneJ1_34_0 :gneJ1_35_0 :gneJ1_36_0 :gneJ1_37_0 :gneJ1_43_0 :gneJ1_44_0 :gneJ1_45_0 :gneJ1_51_0 :gneJ1_52_0 :gneJ1_53_0"/>
    <junction id=":gneJ1_58_0" type="internal" x="263.95" y="117.26" incLanes=":gneJ1_20_0 gneE0_0" intLanes=":gneJ1_4_0 :gneJ1_5_0 :gneJ1_12_0 :gneJ1_13_0 :gneJ1_22_0 :gneJ1_23_0 :gneJ1_24_0 :gneJ1_25_0 :gneJ1_26_0 :gneJ1_27_0 :gneJ1_28_0 :gneJ1_29_0 :gneJ1_36_0 :gneJ1_37_0 :gneJ1_44_0 :gneJ1_45_0 :gneJ1_52_0 :gneJ1_53_0"/>