<?xml version="1.0" encoding="UTF-8"?>

<!-- generated on 2023-03-03 14:38:21 by Eclipse SUMO netconvert Version 1.10.0
<configuration xmlns:xsi="http://www.w3.org/2001/XMLSchema-instance" xsi:noNamespaceSchemaLocation="http://sumo.dlr.de/xsd/netconvertConfiguration.xsd">

    <input>
        <type-files value="D:\veins\Eclipse\Sumo\data\typemap\osmNetconvert.typ.xml"/>
        <osm-files value="osm_bbox.osm.xml"/>
    </input>

    <output>
        <output-file value="osm.net.xml"/>
        <output.street-names value="true"/>
        <output.original-names value="true"/>
    </output>

    <projection>
        <proj.utm value="true"/>
    </projection>

    <processing>
        <geometry.remove value="true"/>
        <roundabouts.guess value="true"/>
    </processing>

    <tls_building>
        <tls.discard-simple value="true"/>
        <tls.join value="true"/>
        <tls.guess-signals value="true"/>
        <tls.default-type value="actuated"/>
    </tls_building>

    <ramp_guessing>
        <ramps.guess value="true"/>
    </ramp_guessing>

    <edge_removal>
        <keep-edges.by-vclass value="passenger"/>
    </edge_removal>

    <junctions>
        <junctions.join value="true"/>
        <junctions.corner-detail value="5"/>
    </junctions>

    <report>
        <verbose value="true"/>
        <aggregate-warnings value="5"/>
    </report>

</configuration>
-->

<net version="1.9" junctionCornerDetail="5" limitTurnSpeed="5.50" xmlns:xsi="http://www.w3.org/2001/XMLSchema-instance" xsi:noNamespaceSchemaLocation="http://sumo.dlr.de/xsd/net_file.xsd">

    <location netOffset="-316011.97,-5061151.46" convBoundary="0.00,0.00,4573.95,3825.07" origBoundary="126.509767,45.645127,126.723364,45.842568" projParameter="+proj=utm +zone=52 +ellps=WGS84 +datum=WGS84 +units=m +no_defs"/>

    <type id="highway.bridleway" priority="1" numLanes="1" speed="2.78" allow="pedestrian" oneway="1" width="2.00"/>
    <type id="highway.bus_guideway" priority="1" numLanes="1" speed="27.78" allow="bus" oneway="1"/>
    <type id="highway.cycleway" priority="1" numLanes="1" speed="8.33" allow="bicycle" oneway="0" width="1.00"/>
    <type id="highway.footway" priority="1" numLanes="1" speed="2.78" allow="pedestrian" oneway="1" width="2.00"/>
    <type id="highway.ford" priority="1" numLanes="1" speed="2.78" allow="army" oneway="0"/>
    <type id="highway.living_street" priority="2" numLanes="1" speed="2.78" disallow="tram rail_urban rail rail_electric rail_fast ship" oneway="0"/>
    <type id="highway.motorway" priority="14" numLanes="2" speed="39.44" allow="private emergency authority army vip passenger hov taxi bus coach delivery truck trailer motorcycle evehicle custom1 custom2" oneway="1"/>
    <type id="highway.motorway_link" priority="9" numLanes="1" speed="22.22" allow="private emergency authority army vip passenger hov taxi bus coach delivery truck trailer motorcycle evehicle custom1 custom2" oneway="1"/>
    <type id="highway.path" priority="1" numLanes="1" speed="2.78" allow="pedestrian bicycle" oneway="0" width="2.00"/>
    <type id="highway.pedestrian" priority="1" numLanes="1" speed="2.78" allow="pedestrian" oneway="1" width="2.00"/>
    <type id="highway.primary" priority="12" numLanes="2" speed="27.78" disallow="tram rail_urban rail rail_electric rail_fast ship" oneway="0"/>
    <type id="highway.primary_link" priority="7" numLanes="1" speed="22.22" disallow="tram rail_urban rail rail_electric rail_fast ship" oneway="0"/>
    <type id="highway.raceway" priority="15" numLanes="2" speed="83.33" allow="vip" oneway="0"/>
    <type id="highway.residential" priority="3" numLanes="1" speed="13.89" disallow="tram rail_urban rail rail_electric rail_fast ship" oneway="0"/>
    <type id="highway.secondary" priority="11" numLanes="1" speed="27.78" disallow="tram rail_urban rail rail_electric rail_fast ship" oneway="0"/>
    <type id="highway.secondary_link" priority="6" numLanes="1" speed="22.22" disallow="tram rail_urban rail rail_electric rail_fast ship" oneway="0"/>
    <type id="highway.service" priority="1" numLanes="1" speed="5.56" allow="pedestrian delivery bicycle" oneway="0"/>
    <type id="highway.stairs" priority="1" numLanes="1" speed="1.39" allow="pedestrian" oneway="1" width="2.00"/>
    <type id="highway.step" priority="1" numLanes="1" speed="1.39" allow="pedestrian" oneway="1" width="2.00"/>
    <type id="highway.steps" priority="1" numLanes="1" speed="1.39" allow="pedestrian" oneway="1" width="2.00"/>
    <type id="highway.tertiary" priority="10" numLanes="1" speed="22.22" disallow="tram rail_urban rail rail_electric rail_fast ship" oneway="0"/>
    <type id="highway.tertiary_link" priority="5" numLanes="1" speed="22.22" disallow="tram rail_urban rail rail_electric rail_fast ship" oneway="0"/>
    <type id="highway.track" priority="1" numLanes="1" speed="5.56" allow="pedestrian motorcycle moped bicycle" oneway="0"/>
    <type id="highway.trunk" priority="13" numLanes="2" speed="27.78" disallow="pedestrian bicycle tram rail_urban rail rail_electric rail_fast ship" oneway="0"/>
    <type id="highway.trunk_link" priority="8" numLanes="1" speed="22.22" disallow="pedestrian bicycle tram rail_urban rail rail_electric rail_fast ship" oneway="0"/>
    <type id="highway.unclassified" priority="4" numLanes="1" speed="13.89" disallow="tram rail_urban rail rail_electric rail_fast ship" oneway="0"/>
    <type id="highway.unsurfaced" priority="1" numLanes="1" speed="8.33" disallow="tram rail_urban rail rail_electric rail_fast ship" oneway="0"/>
    <type id="railway.highspeed" priority="21" numLanes="1" speed="69.44" allow="rail_fast" oneway="1"/>
    <type id="railway.light_rail" priority="19" numLanes="1" speed="27.78" allow="rail_urban" oneway="1"/>
    <type id="railway.preserved" priority="16" numLanes="1" speed="27.78" allow="rail" oneway="1"/>
    <type id="railway.rail" priority="20" numLanes="1" speed="44.44" allow="rail" oneway="1"/>
    <type id="railway.subway" priority="18" numLanes="1" speed="27.78" allow="rail_urban" oneway="1"/>
    <type id="railway.tram" priority="17" numLanes="1" speed="13.89" allow="tram" oneway="1"/>

    <edge id=":10002385025_0" function="internal">
        <lane id=":10002385025_0_0" index="0" disallow="tram rail_urban rail rail_electric rail_fast ship" speed="11.90" length="14.39" shape="2244.48,2987.10 2243.97,2984.61 2242.49,2981.83 2240.04,2978.78 2236.61,2975.45"/>
    </edge>
    <edge id=":10002385025_1" function="internal">
        <lane id=":10002385025_1_0" index="0" disallow="tram rail_urban rail rail_electric rail_fast ship" speed="22.22" length="16.60" shape="2244.48,2987.10 2244.35,2970.50"/>
    </edge>
    <edge id=":10002385025_2" function="internal">
        <lane id=":10002385025_2_0" index="0" disallow="tram rail_urban rail rail_electric rail_fast ship" speed="3.65" length="4.67" shape="2244.48,2987.10 2245.27,2985.90 2246.07,2985.49 2246.87,2985.89 2247.68,2987.08"/>
    </edge>
    <edge id=":10002385025_3" function="internal">
        <lane id=":10002385025_3_0" index="0" disallow="tram rail_urban rail rail_electric rail_fast ship" speed="22.22" length="16.60" shape="2247.55,2970.48 2247.68,2987.08"/>
    </edge>
    <edge id=":10002385025_4" function="internal">
        <lane id=":10002385025_4_0" index="0" disallow="tram rail_urban rail rail_electric rail_fast ship" speed="7.40" length="18.66" shape="2247.55,2970.48 2246.91,2976.32 2244.87,2979.10 2241.44,2978.81 2236.61,2975.45"/>
    </edge>
    <edge id=":10002385025_5" function="internal">
        <lane id=":10002385025_5_0" index="0" disallow="tram rail_urban rail rail_electric rail_fast ship" speed="3.65" length="4.67" shape="2247.55,2970.48 2246.76,2971.68 2245.97,2972.09 2245.16,2971.69 2244.35,2970.50"/>
    </edge>
    <edge id=":10002385025_6" function="internal">
        <lane id=":10002385025_6_0" index="0" disallow="tram rail_urban rail rail_electric rail_fast ship" speed="5.50" length="9.59" shape="2238.73,2973.06 2241.21,2974.78 2242.98,2974.93 2244.02,2973.50 2244.35,2970.50"/>
    </edge>
    <edge id=":10002385025_7" function="internal">
        <lane id=":10002385025_7_0" index="0" disallow="tram rail_urban rail rail_electric rail_fast ship" speed="12.92" length="17.05" shape="2238.73,2973.06 2242.63,2976.89 2245.42,2980.50 2247.10,2983.90 2247.68,2987.08"/>
    </edge>
    <edge id=":10002385025_8" function="internal">
        <lane id=":10002385025_8_0" index="0" disallow="tram rail_urban rail rail_electric rail_fast ship" speed="3.65" length="4.67" shape="2238.73,2973.06 2239.10,2974.45 2238.87,2975.32 2238.04,2975.65 2236.61,2975.45"/>
    </edge>
    <edge id=":10251421395_0" function="internal">
        <lane id=":10251421395_0_0" index="0" disallow="tram rail_urban rail rail_electric rail_fast ship" speed="7.29" length="7.74" shape="2662.51,1237.51 2660.97,1236.74 2659.24,1236.54 2657.32,1236.91 2655.20,1237.85"/>
    </edge>
    <edge id=":10251421395_1" function="internal">
        <lane id=":10251421395_1_0" index="0" disallow="tram rail_urban rail rail_electric rail_fast ship" speed="27.78" length="8.63" shape="2662.51,1237.51 2655.54,1232.42"/>
        <lane id=":10251421395_1_1" index="1" disallow="tram rail_urban rail rail_electric rail_fast ship" speed="27.78" length="8.63" shape="2664.40,1234.93 2657.43,1229.83"/>
    </edge>
    <edge id=":1179259631_0" function="internal">
        <lane id=":1179259631_0_0" index="0" disallow="pedestrian bicycle tram rail_urban rail rail_electric rail_fast ship" speed="5.54" length="9.45" shape="3396.16,2420.02 3397.37,2422.69 3398.82,2423.74 3400.52,2423.17 3402.46,2420.98"/>
        <lane id=":1179259631_0_1" index="1" disallow="pedestrian bicycle tram rail_urban rail rail_electric rail_fast ship" speed="7.38" length="17.97" shape="3393.10,2420.98 3395.40,2426.06 3398.17,2428.05 3401.40,2426.96 3405.10,2422.79"/>
    </edge>
    <edge id=":1179259631_2" function="internal">
        <lane id=":1179259631_2_0" index="0" disallow="pedestrian bicycle tram rail_urban rail rail_electric rail_fast ship" speed="27.78" length="22.97" shape="3393.10,2420.98 3395.49,2426.88 3398.11,2431.25 3400.83,2435.59 3403.51,2441.39"/>
    </edge>
    <edge id=":1179259631_3" function="internal">
        <lane id=":1179259631_3_0" index="0" disallow="pedestrian bicycle tram rail_urban rail rail_electric rail_fast ship" speed="27.78" length="22.63" shape="3391.64,2441.16 3394.16,2435.27 3396.37,2430.70 3398.92,2426.31 3402.46,2420.98"/>
        <lane id=":1179259631_3_1" index="1" disallow="pedestrian bicycle tram rail_urban rail rail_electric rail_fast ship" speed="27.78" length="22.63" shape="3394.60,2442.39 3397.07,2436.59 3399.17,2432.22 3401.61,2428.03 3405.10,2422.79"/>
    </edge>
    <edge id=":1179259631_5" function="internal">
        <lane id=":1179259631_5_0" index="0" disallow="pedestrian bicycle tram rail_urban rail rail_electric rail_fast ship" speed="5.46" length="9.85" shape="3394.60,2442.39 3396.13,2439.61 3397.63,2438.70 3399.09,2439.67 3400.51,2442.51"/>
    </edge>
    <edge id=":1179259997_0" function="internal">
        <lane id=":1179259997_0_0" index="0" disallow="pedestrian bicycle tram rail_urban rail rail_electric rail_fast ship" speed="6.34" length="9.04" shape="2607.24,3137.82 2608.98,3139.63 2610.84,3140.39 2612.84,3140.11 2614.96,3138.77"/>
    </edge>
    <edge id=":1179259997_1" function="internal">
        <lane id=":1179259997_1_0" index="0" disallow="tram rail_urban rail rail_electric rail_fast ship" speed="3.65" length="4.67" shape="2607.24,3137.82 2607.29,3139.26 2606.88,3140.06 2605.99,3140.20 2604.64,3139.69"/>
    </edge>
    <edge id=":1179259997_2" function="internal">
        <lane id=":1179259997_2_0" index="0" disallow="pedestrian bicycle tram rail_urban rail rail_electric rail_fast ship" speed="6.81" length="9.44" shape="2603.91,3148.07 2605.54,3146.22 2606.20,3144.21 2605.90,3142.04 2604.64,3139.69"/>
    </edge>
    <edge id=":1179259997_3" function="internal">
        <lane id=":1179259997_3_0" index="0" disallow="pedestrian bicycle tram rail_urban rail rail_electric rail_fast ship" speed="27.78" length="14.47" shape="2603.91,3148.07 2614.96,3138.77"/>
        <lane id=":1179259997_3_1" index="1" disallow="pedestrian bicycle tram rail_urban rail rail_electric rail_fast ship" speed="27.78" length="14.47" shape="2605.96,3150.52 2617.03,3141.21"/>
        <lane id=":1179259997_3_2" index="2" disallow="pedestrian bicycle tram rail_urban rail rail_electric rail_fast ship" speed="27.78" length="14.47" shape="2608.01,3152.98 2619.10,3143.65"/>
    </edge>
    <edge id=":2191032231_0" function="internal">
        <lane id=":2191032231_0_0" index="0" disallow="tram rail_urban rail rail_electric rail_fast ship" speed="3.65" length="4.67" shape="2149.50,3425.52 2149.37,3426.96 2148.85,3427.69 2147.96,3427.72 2146.69,3427.05"/>
    </edge>
    <edge id=":2191032480_0" function="internal">
        <lane id=":2191032480_0_0" index="0" disallow="tram rail_urban rail rail_electric rail_fast ship" speed="27.78" length="14.30" shape="1542.25,2280.40 1539.16,2266.44"/>
    </edge>
    <edge id=":2191032480_1" function="internal">
        <lane id=":2191032480_1_0" index="0" disallow="tram rail_urban rail rail_electric rail_fast ship" speed="4.79" length="5.68" shape="1542.25,2280.40 1541.80,2278.17 1541.78,2276.62 1542.20,2275.74 1543.06,2275.53"/>
    </edge>
    <edge id=":2191032480_2" function="internal">
        <lane id=":2191032480_2_0" index="0" disallow="tram rail_urban rail rail_electric rail_fast ship" speed="6.40" length="9.04" shape="1534.55,2272.76 1536.95,2272.09 1538.52,2270.82 1539.26,2268.93 1539.16,2266.44"/>
    </edge>
    <edge id=":2191032480_3" function="internal">
        <lane id=":2191032480_3_0" index="0" disallow="tram rail_urban rail rail_electric rail_fast ship" speed="27.78" length="8.55" shape="1534.55,2272.76 1537.18,2272.38 1538.99,2272.14 1540.81,2272.11 1543.44,2272.35"/>
        <lane id=":2191032480_3_1" index="1" disallow="tram rail_urban rail rail_electric rail_fast ship" speed="27.78" length="8.55" shape="1534.96,2275.93 1537.36,2275.58 1539.01,2275.36 1540.66,2275.31 1543.06,2275.53"/>
    </edge>
    <edge id=":2191032780_0" function="internal">
        <lane id=":2191032780_0_0" index="0" disallow="tram rail_urban rail rail_electric rail_fast ship" speed="5.81" length="9.14" shape="1568.44,2287.26 1565.81,2287.79 1564.35,2288.99 1564.05,2290.86 1564.92,2293.39"/>
    </edge>
    <edge id=":2191032780_1" function="internal">
        <lane id=":2191032780_1_0" index="0" disallow="tram rail_urban rail rail_electric rail_fast ship" speed="27.78" length="14.35" shape="1568.44,2287.26 1554.40,2288.62"/>
        <lane id=":2191032780_1_1" index="1" disallow="tram rail_urban rail rail_electric rail_fast ship" speed="27.78" length="14.35" shape="1568.25,2284.07 1553.96,2285.45"/>
        <lane id=":2191032780_1_2" index="2" disallow="tram rail_urban rail rail_electric rail_fast ship" speed="27.78" length="14.35" shape="1568.05,2280.87 1553.52,2282.28"/>
    </edge>
    <edge id=":2191032780_4" function="internal">
        <lane id=":2191032780_4_0" index="0" disallow="tram rail_urban rail rail_electric rail_fast ship" speed="27.78" length="17.11" shape="1558.11,2277.71 1559.54,2281.53 1561.28,2285.65 1563.13,2289.72 1564.92,2293.39"/>
    </edge>
    <edge id=":2191032780_5" function="internal">
        <lane id=":2191032780_5_0" index="0" disallow="tram rail_urban rail rail_electric rail_fast ship" speed="6.55" length="10.52" shape="1558.11,2277.71 1558.73,2280.75 1558.25,2283.06 1556.66,2284.63 1553.96,2285.45"/>
        <lane id=":2191032780_5_1" index="1" disallow="tram rail_urban rail rail_electric rail_fast ship" speed="5.69" length="7.63" shape="1558.11,2277.71 1558.31,2279.40 1557.61,2280.73 1556.01,2281.69 1553.52,2282.28"/>
    </edge>
    <edge id=":243742961#1-AddedOnRampNode_0" function="internal">
        <lane id=":243742961#1-AddedOnRampNode_0_0" index="0" disallow="tram rail_urban rail rail_electric rail_fast ship" speed="27.78" length="8.00" shape="1104.30,2404.20 1100.01,2410.95"/>
    </edge>
    <edge id=":2473546508_0" function="internal">
        <lane id=":2473546508_0_0" index="0" disallow="tram rail_urban rail rail_electric rail_fast ship" speed="3.65" length="4.67" shape="4077.20,959.19 4078.57,959.65 4079.16,960.32 4078.98,961.20 4078.03,962.28"/>
    </edge>
    <edge id=":2473546512_0" function="internal">
        <lane id=":2473546512_0_0" index="0" disallow="tram rail_urban rail rail_electric rail_fast ship" speed="3.93" length="4.31" shape="4134.87,1419.60 4134.96,1420.92 4134.61,1421.67 4133.80,1421.83 4132.54,1421.40"/>
    </edge>
    <edge id=":2511165674_0" function="internal">
        <lane id=":2511165674_0_0" index="0" disallow="tram rail_urban rail rail_electric rail_fast ship" speed="25.00" length="3.23" shape="1159.77,2323.81 1159.14,2324.54 1158.73,2325.05 1158.35,2325.59 1157.83,2326.40"/>
    </edge>
    <edge id=":2511165674_1" function="internal">
        <lane id=":2511165674_1_0" index="0" disallow="tram rail_urban rail rail_electric rail_fast ship" speed="27.78" length="3.34" shape="1156.99,2321.89 1155.14,2324.67"/>
    </edge>
    <edge id=":3968910023_0" function="internal">
        <lane id=":3968910023_0_0" index="0" disallow="tram rail_urban rail rail_electric rail_fast ship" speed="3.65" length="4.67" shape="2403.06,3298.25 2403.10,3299.69 2402.67,3300.48 2401.79,3300.61 2400.44,3300.10"/>
    </edge>
    <edge id=":4361619909_0" function="internal">
        <lane id=":4361619909_0_0" index="0" disallow="tram rail_urban rail rail_electric rail_fast ship" speed="25.00" length="3.86" shape="1535.24,2292.90 1531.40,2293.32"/>
    </edge>
    <edge id=":4361619909_1" function="internal">
        <lane id=":4361619909_1_0" index="0" disallow="tram rail_urban rail rail_electric rail_fast ship" speed="27.78" length="3.94" shape="1534.80,2289.73 1533.64,2289.89 1532.84,2289.96 1532.04,2289.95 1530.87,2289.89"/>
        <lane id=":4361619909_1_1" index="1" disallow="tram rail_urban rail rail_electric rail_fast ship" speed="27.78" length="3.31" shape="1534.36,2286.56 1533.38,2286.69 1532.71,2286.75 1532.04,2286.75 1531.06,2286.69"/>
    </edge>
    <edge id=":4361619917_0" function="internal">
        <lane id=":4361619917_0_0" index="0" disallow="tram rail_urban rail rail_electric rail_fast ship" speed="27.78" length="0.23" shape="1276.14,2259.54 1276.26,2259.55"/>
        <lane id=":4361619917_0_1" index="1" disallow="tram rail_urban rail rail_electric rail_fast ship" speed="27.78" length="0.23" shape="1275.75,2262.72 1276.09,2262.75"/>
    </edge>
    <edge id=":4361619920_0" function="internal">
        <lane id=":4361619920_0_0" index="0" disallow="tram rail_urban rail rail_electric rail_fast ship" speed="5.58" length="9.35" shape="1227.34,2275.95 1224.47,2275.95 1222.90,2276.85 1222.61,2278.64 1223.62,2281.32"/>
    </edge>
    <edge id=":4361619920_1" function="internal">
        <lane id=":4361619920_1_0" index="0" disallow="tram rail_urban rail rail_electric rail_fast ship" speed="17.88" length="19.15" shape="1227.34,2275.95 1222.94,2275.78 1217.75,2276.18 1212.66,2277.12 1208.54,2278.57"/>
    </edge>
    <edge id=":4361619920_2" function="internal">
        <lane id=":4361619920_2_0" index="0" disallow="tram rail_urban rail rail_electric rail_fast ship" speed="27.78" length="15.09" shape="1216.45,2267.97 1223.62,2281.32"/>
        <lane id=":4361619920_2_1" index="1" disallow="tram rail_urban rail rail_electric rail_fast ship" speed="27.78" length="15.09" shape="1213.65,2269.52 1220.79,2282.81"/>
        <lane id=":4361619920_2_2" index="2" disallow="tram rail_urban rail rail_electric rail_fast ship" speed="27.78" length="15.09" shape="1210.85,2271.06 1217.96,2284.30"/>
    </edge>
    <edge id=":4361619920_5" function="internal">
        <lane id=":4361619920_5_0" index="0" disallow="tram rail_urban rail rail_electric rail_fast ship" speed="6.43" length="9.03" shape="1210.85,2271.06 1211.73,2273.39 1211.64,2275.42 1210.58,2277.15 1208.54,2278.57"/>
    </edge>
    <edge id=":4361620901_0" function="internal">
        <lane id=":4361620901_0_0" index="0" disallow="tram rail_urban rail rail_electric rail_fast ship" speed="6.54" length="9.06" shape="1119.66,1846.02 1117.22,1846.51 1115.51,1847.66 1114.55,1849.46 1114.31,1851.92"/>
    </edge>
    <edge id=":4361620901_1" function="internal">
        <lane id=":4361620901_1_0" index="0" disallow="tram rail_urban rail rail_electric rail_fast ship" speed="3.65" length="4.67" shape="1119.66,1846.02 1118.41,1845.29 1117.97,1844.51 1118.32,1843.69 1119.47,1842.82"/>
    </edge>
    <edge id=":4361620901_2" function="internal">
        <lane id=":4361620901_2_0" index="0" disallow="tram rail_urban rail rail_electric rail_fast ship" speed="6.50" length="9.03" shape="1113.56,1837.56 1114.05,1839.98 1115.19,1841.67 1117.00,1842.62 1119.47,1842.82"/>
    </edge>
    <edge id=":4361620901_3" function="internal">
        <lane id=":4361620901_3_0" index="0" disallow="tram rail_urban rail rail_electric rail_fast ship" speed="27.78" length="14.37" shape="1113.56,1837.56 1114.31,1851.92"/>
        <lane id=":4361620901_3_1" index="1" disallow="tram rail_urban rail rail_electric rail_fast ship" speed="27.78" length="14.37" shape="1110.37,1837.73 1111.12,1852.08"/>
        <lane id=":4361620901_3_2" index="2" disallow="tram rail_urban rail rail_electric rail_fast ship" speed="27.78" length="14.37" shape="1107.17,1837.91 1107.92,1852.24"/>
    </edge>
    <edge id=":4361620973_0" function="internal">
        <lane id=":4361620973_0_0" index="0" disallow="tram rail_urban rail rail_electric rail_fast ship" speed="27.78" length="2.61" shape="1139.00,2117.93 1139.17,2118.52 1139.27,2118.93 1139.40,2119.34 1139.65,2119.89"/>
        <lane id=":4361620973_0_1" index="1" disallow="tram rail_urban rail rail_electric rail_fast ship" speed="27.78" length="2.61" shape="1135.95,2118.90 1136.17,2119.65 1136.31,2120.16 1136.48,2120.66 1136.81,2121.36"/>
        <lane id=":4361620973_0_2" index="2" disallow="tram rail_urban rail rail_electric rail_fast ship" speed="27.78" length="2.61" shape="1132.90,2119.88 1133.17,2120.77 1133.34,2121.39 1133.56,2121.99 1133.96,2122.82"/>
    </edge>
    <edge id=":4361620978_0" function="internal">
        <lane id=":4361620978_0_0" index="0" disallow="tram rail_urban rail rail_electric rail_fast ship" speed="27.78" length="30.07" shape="1504.32,2267.42 1509.57,2268.94 1517.12,2271.06 1525.63,2272.72 1533.72,2272.87"/>
    </edge>
    <edge id=":4361620978_1" function="internal">
        <lane id=":4361620978_1_0" index="0" disallow="tram rail_urban rail rail_electric rail_fast ship" speed="27.78" length="30.34" shape="1503.76,2271.30 1511.26,2271.94 1518.77,2272.76 1526.26,2273.24 1533.72,2272.87"/>
        <lane id=":4361620978_1_1" index="1" disallow="tram rail_urban rail rail_electric rail_fast ship" speed="27.78" length="30.34" shape="1503.60,2274.49 1511.19,2275.13 1518.89,2275.94 1526.58,2276.41 1534.13,2276.04"/>
    </edge>
    <edge id=":4361621015_0" function="internal">
        <lane id=":4361621015_0_0" index="0" disallow="tram rail_urban rail rail_electric rail_fast ship" speed="27.78" length="0.21" shape="1274.59,2274.62 1274.28,2274.59"/>
        <lane id=":4361621015_0_1" index="1" disallow="tram rail_urban rail rail_electric rail_fast ship" speed="27.78" length="0.21" shape="1274.78,2271.43 1274.68,2271.42"/>
    </edge>
    <edge id=":4361621031_0" function="internal">
        <lane id=":4361621031_0_0" index="0" disallow="tram rail_urban rail rail_electric rail_fast ship" speed="6.41" length="9.04" shape="1205.68,2248.11 1207.12,2250.14 1208.86,2251.19 1210.88,2251.25 1213.20,2250.33"/>
    </edge>
    <edge id=":4361621031_1" function="internal">
        <lane id=":4361621031_1_0" index="0" disallow="tram rail_urban rail rail_electric rail_fast ship" speed="27.78" length="11.53" shape="1205.68,2248.11 1211.06,2258.20"/>
        <lane id=":4361621031_1_1" index="1" disallow="tram rail_urban rail rail_electric rail_fast ship" speed="27.78" length="11.53" shape="1202.83,2249.58 1208.26,2259.75"/>
        <lane id=":4361621031_1_2" index="2" disallow="tram rail_urban rail rail_electric rail_fast ship" speed="27.78" length="11.53" shape="1199.99,2251.04 1205.46,2261.29"/>
    </edge>
    <edge id=":4361621031_4" function="internal">
        <lane id=":4361621031_4_0" index="0" disallow="tram rail_urban rail rail_electric rail_fast ship" speed="27.78" length="17.71" shape="1197.86,2259.19 1213.20,2250.33"/>
    </edge>
    <edge id=":4361621031_5" function="internal">
        <lane id=":4361621031_5_0" index="0" disallow="tram rail_urban rail rail_electric rail_fast ship" speed="7.28" length="11.77" shape="1197.86,2259.19 1201.37,2257.56 1204.28,2257.11 1206.57,2257.84 1208.26,2259.75"/>
        <lane id=":4361621031_5_1" index="1" disallow="tram rail_urban rail rail_electric rail_fast ship" speed="6.46" length="9.03" shape="1197.86,2259.19 1200.16,2258.26 1202.19,2258.30 1203.96,2259.31 1205.46,2261.29"/>
    </edge>
    <edge id=":438416200#0-AddedOffRampNode_0" function="internal">
        <lane id=":438416200#0-AddedOffRampNode_0_0" index="0" disallow="tram rail_urban rail rail_electric rail_fast ship" speed="22.22" length="8.40" shape="1377.84,2289.56 1375.35,2289.87 1373.73,2290.86 1372.12,2291.84 1369.62,2292.16"/>
        <lane id=":438416200#0-AddedOffRampNode_0_1" index="1" disallow="tram rail_urban rail rail_electric rail_fast ship" speed="22.22" length="8.40" shape="1377.84,2289.56 1369.86,2288.97"/>
    </edge>
    <edge id=":5000414155_0" function="internal">
        <lane id=":5000414155_0_0" index="0" disallow="tram rail_urban rail rail_electric rail_fast ship" speed="3.65" length="4.67" shape="4574.84,2442.67 4575.40,2444.00 4575.29,2444.88 4574.51,2445.33 4573.07,2445.33"/>
    </edge>
    <edge id=":5269995346_0" function="internal">
        <lane id=":5269995346_0_0" index="0" disallow="tram rail_urban rail rail_electric rail_fast ship" speed="5.86" length="9.12" shape="3351.20,2329.65 3350.27,2327.17 3348.86,2325.89 3346.95,2325.81 3344.55,2326.94"/>
    </edge>
    <edge id=":5269995346_1" function="internal">
        <lane id=":5269995346_1_0" index="0" disallow="tram rail_urban rail rail_electric rail_fast ship" speed="27.78" length="15.03" shape="3351.20,2329.65 3347.48,2315.22"/>
        <lane id=":5269995346_1_1" index="1" disallow="tram rail_urban rail rail_electric rail_fast ship" speed="27.78" length="15.03" shape="3354.33,2328.96 3350.53,2314.27"/>
    </edge>
    <edge id=":5269995346_3" function="internal">
        <lane id=":5269995346_3_0" index="0" disallow="tram rail_urban rail rail_electric rail_fast ship" speed="7.94" length="10.98" shape="3342.80,2324.27 3345.42,2322.17 3347.08,2319.97 3347.76,2317.65 3347.48,2315.22"/>
    </edge>
    <edge id=":5269995346_4" function="internal">
        <lane id=":5269995346_4_0" index="0" disallow="tram rail_urban rail rail_electric rail_fast ship" speed="3.65" length="4.67" shape="3342.80,2324.27 3344.24,2324.28 3345.01,2324.73 3345.12,2325.62 3344.55,2326.94"/>
    </edge>
    <edge id=":5269995351_0" function="internal">
        <lane id=":5269995351_0_0" index="0" disallow="pedestrian bicycle tram rail_urban rail rail_electric rail_fast ship" speed="10.02" length="22.05" shape="3386.65,2473.95 3383.87,2472.12 3379.62,2472.29 3373.89,2474.48 3366.68,2478.67"/>
    </edge>
    <edge id=":5269995351_1" function="internal">
        <lane id=":5269995351_1_0" index="0" disallow="pedestrian bicycle tram rail_urban rail rail_electric rail_fast ship" speed="27.78" length="22.44" shape="3386.65,2473.95 3383.19,2468.57 3381.13,2463.92 3379.75,2458.97 3378.37,2452.66"/>
        <lane id=":5269995351_1_1" index="1" disallow="pedestrian bicycle tram rail_urban rail rail_electric rail_fast ship" speed="27.78" length="22.44" shape="3389.25,2472.08 3385.87,2466.89 3383.99,2462.64 3382.79,2458.09 3381.49,2451.97"/>
    </edge>
    <edge id=":5269995351_3" function="internal">
        <lane id=":5269995351_3_0" index="0" disallow="pedestrian bicycle tram rail_urban rail rail_electric rail_fast ship" speed="11.98" length="10.07" shape="3389.25,2472.08 3387.62,2468.61 3387.18,2464.39 3387.48,2462.42"/>
    </edge>
    <edge id=":5269995351_11" function="internal">
        <lane id=":5269995351_11_0" index="0" disallow="pedestrian bicycle tram rail_urban rail rail_electric rail_fast ship" speed="11.98" length="9.09" shape="3387.48,2462.42 3387.94,2459.41 3389.89,2453.69"/>
    </edge>
    <edge id=":5269995351_4" function="internal">
        <lane id=":5269995351_4_0" index="0" disallow="tram rail_urban rail rail_electric rail_fast ship" speed="13.07" length="28.67" shape="3364.93,2475.99 3371.86,2470.55 3376.41,2464.85 3378.58,2458.88 3378.37,2452.66"/>
    </edge>
    <edge id=":5269995351_5" function="internal">
        <lane id=":5269995351_5_0" index="0" disallow="pedestrian bicycle tram rail_urban rail rail_electric rail_fast ship" speed="23.21" length="32.49" shape="3364.93,2475.99 3369.59,2472.45 3376.06,2466.66 3382.46,2459.64 3386.93,2452.46"/>
    </edge>
    <edge id=":5269995351_6" function="internal">
        <lane id=":5269995351_6_0" index="0" disallow="tram rail_urban rail rail_electric rail_fast ship" speed="3.65" length="4.67" shape="3364.93,2475.99 3366.38,2476.00 3367.15,2476.45 3367.25,2477.34 3366.68,2478.67"/>
    </edge>
    <edge id=":5269995351_7" function="internal">
        <lane id=":5269995351_7_0" index="0" disallow="pedestrian bicycle tram rail_urban rail rail_electric rail_fast ship" speed="5.77" length="13.12" shape="3369.93,2482.01 3372.36,2478.03 3372.62,2476.15 3370.73,2476.36 3366.68,2478.67"/>
    </edge>
    <edge id=":5269995351_8" function="internal">