<?xml version="1.0" encoding="UTF-8"?>

<!-- generated on 2023-03-03 14:58:38 by Eclipse SUMO netconvert Version 1.10.0
<configuration xmlns:xsi="http://www.w3.org/2001/XMLSchema-instance" xsi:noNamespaceSchemaLocation="http://sumo.dlr.de/xsd/netconvertConfiguration.xsd">

    <input>
        <type-files value="D:\veins\Eclipse\Sumo\data\typemap\osmNetconvert.typ.xml"/>
        <osm-files value="osm_bbox.osm.xml"/>
    </input>

    <output>
        <output-file value="osm.net.xml"/>
        <output.street-names value="true"/>
        <output.original-names value="true"/>
    </output>

    <projection>
        <proj.utm value="true"/>
    </projection>

    <processing>
        <geometry.remove value="true"/>
        <roundabouts.guess value="true"/>
    </processing>

    <tls_building>
        <tls.discard-simple value="true"/>
        <tls.join value="true"/>
        <tls.guess-signals value="true"/>
        <tls.default-type value="actuated"/>
    </tls_building>

    <ramp_guessing>
        <ramps.guess value="true"/>
    </ramp_guessing>

    <edge_removal>
        <keep-edges.by-vclass value="passenger"/>
    </edge_removal>

    <junctions>
        <junctions.join value="true"/>
        <junctions.corner-detail value="5"/>
    </junctions>

    <report>
        <verbose value="true"/>
        <aggregate-warnings value="5"/>
    </report>

</configuration>
-->

<net version="1.9" junctionCornerDetail="5" limitTurnSpeed="5.50" xmlns:xsi="http://www.w3.org/2001/XMLSchema-instance" xsi:noNamespaceSchemaLocation="http://sumo.dlr.de/xsd/net_file.xsd">

    <location netOffset="-308072.94,-5083197.65" convBoundary="0.00,0.00,3540.50,5473.42" origBoundary="126.525519,45.876099,126.571024,45.925304" projParameter="+proj=utm +zone=52 +ellps=WGS84 +datum=WGS84 +units=m +no_defs"/>

    <type id="highway.bridleway" priority="1" numLanes="1" speed="2.78" allow="pedestrian" oneway="1" width="2.00"/>
    <type id="highway.bus_guideway" priority="1" numLanes="1" speed="27.78" allow="bus" oneway="1"/>
    <type id="highway.cycleway" priority="1" numLanes="1" speed="8.33" allow="bicycle" oneway="0" width="1.00"/>
    <type id="highway.footway" priority="1" numLanes="1" speed="2.78" allow="pedestrian" oneway="1" width="2.00"/>
    <type id="highway.ford" priority="1" numLanes="1" speed="2.78" allow="army" oneway="0"/>
    <type id="highway.living_street" priority="2" numLanes="1" speed="2.78" disallow="tram rail_urban rail rail_electric rail_fast ship" oneway="0"/>
    <type id="highway.motorway" priority="14" numLanes="2" speed="39.44" allow="private emergency authority army vip passenger hov taxi bus coach delivery truck trailer motorcycle evehicle custom1 custom2" oneway="1"/>
    <type id="highway.motorway_link" priority="9" numLanes="1" speed="22.22" allow="private emergency authority army vip passenger hov taxi bus coach delivery truck trailer motorcycle evehicle custom1 custom2" oneway="1"/>
    <type id="highway.path" priority="1" numLanes="1" speed="2.78" allow="pedestrian bicycle" oneway="0" width="2.00"/>
    <type id="highway.pedestrian" priority="1" numLanes="1" speed="2.78" allow="pedestrian" oneway="1" width="2.00"/>
    <type id="highway.primary" priority="12" numLanes="2" speed="27.78" disallow="tram rail_urban rail rail_electric rail_fast ship" oneway="0"/>
    <type id="highway.primary_link" priority="7" numLanes="1" speed="22.22" disallow="tram rail_urban rail rail_electric rail_fast ship" oneway="0"/>
    <type id="highway.raceway" priority="15" numLanes="2" speed="83.33" allow="vip" oneway="0"/>
    <type id="highway.residential" priority="3" numLanes="1" speed="13.89" disallow="tram rail_urban rail rail_electric rail_fast ship" oneway="0"/>
    <type id="highway.secondary" priority="11" numLanes="1" speed="27.78" disallow="tram rail_urban rail rail_electric rail_fast ship" oneway="0"/>
    <type id="highway.secondary_link" priority="6" numLanes="1" speed="22.22" disallow="tram rail_urban rail rail_electric rail_fast ship" oneway="0"/>
    <type id="highway.service" priority="1" numLanes="1" speed="5.56" allow="pedestrian delivery bicycle" oneway="0"/>
    <type id="highway.stairs" priority="1" numLanes="1" speed="1.39" allow="pedestrian" oneway="1" width="2.00"/>
    <type id="highway.step" priority="1" numLanes="1" speed="1.39" allow="pedestrian" oneway="1" width="2.00"/>
    <type id="highway.steps" priority="1" numLanes="1" speed="1.39" allow="pedestrian" oneway="1" width="2.00"/>
    <type id="highway.tertiary" priority="10" numLanes="1" speed="22.22" disallow="tram rail_urban rail rail_electric rail_fast ship" oneway="0"/>
    <type id="highway.tertiary_link" priority="5" numLanes="1" speed="22.22" disallow="tram rail_urban rail rail_electric rail_fast ship" oneway="0"/>
    <type id="highway.track" priority="1" numLanes="1" speed="5.56" allow="pedestrian motorcycle moped bicycle" oneway="0"/>
    <type id="highway.trunk" priority="13" numLanes="2" speed="27.78" disallow="pedestrian bicycle tram rail_urban rail rail_electric rail_fast ship" oneway="0"/>
    <type id="highway.trunk_link" priority="8" numLanes="1" speed="22.22" disallow="pedestrian bicycle tram rail_urban rail rail_electric rail_fast ship" oneway="0"/>
    <type id="highway.unclassified" priority="4" numLanes="1" speed="13.89" disallow="tram rail_urban rail rail_electric rail_fast ship" oneway="0"/>
    <type id="highway.unsurfaced" priority="1" numLanes="1" speed="8.33" disallow="tram rail_urban rail rail_electric rail_fast ship" oneway="0"/>
    <type id="railway.highspeed" priority="21" numLanes="1" speed="69.44" allow="rail_fast" oneway="1"/>
    <type id="railway.light_rail" priority="19" numLanes="1" speed="27.78" allow="rail_urban" oneway="1"/>
    <type id="railway.preserved" priority="16" numLanes="1" speed="27.78" allow="rail" oneway="1"/>
    <type id="railway.rail" priority="20" numLanes="1" speed="44.44" allow="rail" oneway="1"/>
    <type id="railway.subway" priority="18" numLanes="1" speed="27.78" allow="rail_urban" oneway="1"/>
    <type id="railway.tram" priority="17" numLanes="1" speed="13.89" allow="tram" oneway="1"/>

    <edge id=":2468965889_0" function="internal">
        <lane id=":2468965889_0_0" index="0" disallow="tram rail_urban rail rail_electric rail_fast ship" speed="5.45" length="13.22" shape="1456.19,236.23 1469.11,239.02"/>
        <lane id=":2468965889_0_1" index="1" disallow="tram rail_urban rail rail_electric rail_fast ship" speed="4.88" length="10.16" shape="1456.19,236.23 1465.91,239.15"/>
        <lane id=":2468965889_0_2" index="2" disallow="tram rail_urban rail rail_electric rail_fast ship" speed="4.26" length="7.21" shape="1456.19,236.23 1462.72,239.28"/>
        <lane id=":2468965889_0_3" index="3" disallow="tram rail_urban rail rail_electric rail_fast ship" speed="3.63" length="4.60" shape="1456.19,236.23 1459.52,239.41"/>
    </edge>
    <edge id=":2469949683_0" function="internal">
        <lane id=":2469949683_0_0" index="0" disallow="tram rail_urban rail rail_electric rail_fast ship" speed="3.65" length="4.67" shape="613.94,4110.35 613.19,4111.58 612.40,4112.01 611.59,4111.64 610.74,4110.47"/>
    </edge>
    <edge id=":3520811727_0" function="internal">
        <lane id=":3520811727_0_0" index="0" disallow="tram rail_urban rail rail_electric rail_fast ship" speed="6.49" length="9.03" shape="2443.48,3308.31 2443.04,3305.87 2441.92,3304.16 2440.13,3303.18 2437.66,3302.94"/>
        <lane id=":3520811727_0_1" index="1" disallow="tram rail_urban rail rail_electric rail_fast ship" speed="7.31" length="11.74" shape="2443.48,3308.31 2442.98,3304.47 2441.83,3301.76 2440.01,3300.19 2437.53,3299.74"/>
    </edge>
    <edge id=":3520811727_2" function="internal">
        <lane id=":3520811727_2_0" index="0" disallow="tram rail_urban rail rail_electric rail_fast ship" speed="3.65" length="4.67" shape="2443.48,3308.31 2444.23,3307.08 2445.02,3306.65 2445.83,3307.02 2446.68,3308.19"/>
    </edge>
    <edge id=":3520811727_3" function="internal">
        <lane id=":3520811727_3_0" index="0" disallow="tram rail_urban rail rail_electric rail_fast ship" speed="6.49" length="9.03" shape="2452.08,3302.41 2449.64,3302.84 2447.92,3303.94 2446.94,3305.72 2446.68,3308.19"/>
    </edge>
    <edge id=":3520811727_4" function="internal">
        <lane id=":3520811727_4_0" index="0" disallow="tram rail_urban rail rail_electric rail_fast ship" speed="27.78" length="14.49" shape="2452.08,3302.41 2437.66,3302.94"/>
        <lane id=":3520811727_4_1" index="1" disallow="tram rail_urban rail rail_electric rail_fast ship" speed="27.78" length="14.49" shape="2451.98,3299.22 2437.53,3299.74"/>
        <lane id=":3520811727_4_2" index="2" disallow="tram rail_urban rail rail_electric rail_fast ship" speed="27.78" length="14.49" shape="2451.89,3296.02 2437.39,3296.55"/>
        <lane id=":3520811727_4_3" index="3" disallow="tram rail_urban rail rail_electric rail_fast ship" speed="27.78" length="14.49" shape="2451.79,3292.82 2437.25,3293.35"/>
    </edge>
    <edge id=":3520811744_0" function="internal">
        <lane id=":3520811744_0_0" index="0" disallow="tram rail_urban rail rail_electric rail_fast ship" speed="3.65" length="4.67" shape="2483.27,4296.66 2482.52,4297.89 2481.73,4298.32 2480.92,4297.95 2480.07,4296.78"/>
    </edge>
    <edge id=":3520811747_0" function="internal">
        <lane id=":3520811747_0_0" index="0" disallow="tram rail_urban rail rail_electric rail_fast ship" speed="3.65" length="4.67" shape="2046.07,4055.52 2045.31,4056.75 2044.53,4057.18 2043.71,4056.81 2042.87,4055.64"/>
    </edge>
    <edge id=":6327202880_0" function="internal">
        <lane id=":6327202880_0_0" index="0" disallow="tram rail_urban rail rail_electric rail_fast ship" speed="3.65" length="4.67" shape="73.30,2883.69 72.07,2882.93 71.65,2882.14 72.02,2881.33 73.19,2880.49"/>
    </edge>
    <edge id=":6327204204_0" function="internal">
        <lane id=":6327204204_0_0" index="0" disallow="tram rail_urban rail rail_electric rail_fast ship" speed="3.65" length="4.67" shape="1143.32,4941.49 1142.47,4942.65 1141.65,4943.02 1140.87,4942.58 1140.12,4941.35"/>
    </edge>
    <edge id=":6327204756_0" function="internal">
        <lane id=":6327204756_0_0" index="0" disallow="tram rail_urban rail rail_electric rail_fast ship" speed="22.22" length="14.40" shape="593.64,3640.88 593.11,3626.48"/>
    </edge>
    <edge id=":6327204756_1" function="internal">
        <lane id=":6327204756_1_0" index="0" disallow="tram rail_urban rail rail_electric rail_fast ship" speed="8.05" length="5.90" shape="593.64,3640.88 594.05,3637.03 595.03,3635.25"/>
    </edge>
    <edge id=":6327204756_2" function="internal">
        <lane id=":6327204756_2_0" index="0" disallow="tram rail_urban rail rail_electric rail_fast ship" speed="3.65" length="2.34" shape="593.64,3640.88 594.39,3639.65 595.18,3639.22"/>
    </edge>
    <edge id=":6327204756_9" function="internal">
        <lane id=":6327204756_9_0" index="0" disallow="tram rail_urban rail rail_electric rail_fast ship" speed="8.05" length="8.31" shape="595.03,3635.25 595.60,3634.22 598.30,3632.44 602.13,3631.70"/>
    </edge>
    <edge id=":6327204756_10" function="internal">
        <lane id=":6327204756_10_0" index="0" disallow="tram rail_urban rail rail_electric rail_fast ship" speed="3.65" length="2.34" shape="595.18,3639.22 595.99,3639.59 596.83,3640.76"/>
    </edge>
    <edge id=":6327204756_3" function="internal">
        <lane id=":6327204756_3_0" index="0" disallow="tram rail_urban rail rail_electric rail_fast ship" speed="6.57" length="9.11" shape="602.30,3634.89 599.83,3635.37 598.10,3636.51 597.10,3638.30 596.83,3640.76"/>
    </edge>
    <edge id=":6327204756_4" function="internal">
        <lane id=":6327204756_4_0" index="0" disallow="tram rail_urban rail rail_electric rail_fast ship" speed="7.97" length="14.25" shape="602.30,3634.89 598.40,3634.54 595.57,3633.02 593.81,3630.34 593.11,3626.48"/>
    </edge>
    <edge id=":6327204756_5" function="internal">
        <lane id=":6327204756_5_0" index="0" disallow="tram rail_urban rail rail_electric rail_fast ship" speed="3.65" length="4.67" shape="602.30,3634.89 601.06,3634.16 600.62,3633.38 600.98,3632.56 602.13,3631.70"/>
    </edge>
    <edge id=":6327204756_6" function="internal">
        <lane id=":6327204756_6_0" index="0" disallow="tram rail_urban rail rail_electric rail_fast ship" speed="6.47" length="9.03" shape="596.31,3626.37 596.75,3628.81 597.87,3630.51 599.66,3631.47 602.13,3631.70"/>
    </edge>
    <edge id=":6327204756_7" function="internal">
        <lane id=":6327204756_7_0" index="0" disallow="tram rail_urban rail rail_electric rail_fast ship" speed="22.22" length="14.40" shape="596.31,3626.37 596.83,3640.76"/>
    </edge>
    <edge id=":6327204756_8" function="internal">
        <lane id=":6327204756_8_0" index="0" disallow="tram rail_urban rail rail_electric rail_fast ship" speed="3.65" length="2.34" shape="596.31,3626.37 595.55,3627.60 594.77,3628.03"/>
    </edge>
    <edge id=":6327204756_11" function="internal">
        <lane id=":6327204756_11_0" index="0" disallow="tram rail_urban rail rail_electric rail_fast ship" speed="3.65" length="2.34" shape="594.77,3628.03 593.95,3627.65 593.11,3626.48"/>
    </edge>
    <edge id=":8847805887_0" function="internal">
        <lane id=":8847805887_0_0" index="0" disallow="tram rail_urban rail rail_electric rail_fast ship" speed="22.22" length="14.40" shape="546.82,2375.61 546.27,2361.22"/>
    </edge>
    <edge id=":8847805887_1" function="internal">
        <lane id=":8847805887_1_0" index="0" disallow="tram rail_urban rail rail_electric rail_fast ship" speed="8.01" length="5.92" shape="546.82,2375.61 547.22,2371.74 548.21,2369.96"/>
    </edge>
    <edge id=":8847805887_2" function="internal">
        <lane id=":8847805887_2_0" index="0" disallow="tram rail_urban rail rail_electric rail_fast ship" speed="3.65" length="2.34" shape="546.82,2375.61 547.57,2374.38 548.36,2373.95"/>
    </edge>
    <edge id=":8847805887_9" function="internal">
        <lane id=":8847805887_9_0" index="0" disallow="tram rail_urban rail rail_electric rail_fast ship" speed="8.01" length="8.27" shape="548.21,2369.96 548.77,2368.93 551.46,2367.18 555.28,2366.47"/>
    </edge>
    <edge id=":8847805887_10" function="internal">
        <lane id=":8847805887_10_0" index="0" disallow="tram rail_urban rail rail_electric rail_fast ship" speed="3.65" length="2.34" shape="548.36,2373.95 549.17,2374.32 550.02,2375.49"/>
    </edge>
    <edge id=":8847805887_3" function="internal">
        <lane id=":8847805887_3_0" index="0" disallow="tram rail_urban rail rail_electric rail_fast ship" speed="6.52" length="9.04" shape="555.41,2369.67 552.97,2370.12 551.26,2371.24 550.27,2373.03 550.02,2375.49"/>
    </edge>
    <edge id=":8847805887_4" function="internal">
        <lane id=":8847805887_4_0" index="0" disallow="tram rail_urban rail rail_electric rail_fast ship" speed="8.00" length="14.20" shape="555.41,2369.67 551.54,2369.27 548.73,2367.73 546.97,2365.05 546.27,2361.22"/>
    </edge>
    <edge id=":8847805887_5" function="internal">
        <lane id=":8847805887_5_0" index="0" disallow="tram rail_urban rail rail_electric rail_fast ship" speed="3.65" length="4.67" shape="555.41,2369.67 554.18,2368.92 553.75,2368.14 554.12,2367.32 555.28,2366.47"/>
    </edge>
    <edge id=":8847805887_6" function="internal">
        <lane id=":8847805887_6_0" index="0" disallow="tram rail_urban rail rail_electric rail_fast ship" speed="6.50" length="9.03" shape="549.47,2361.10 549.91,2363.53 551.03,2365.24 552.82,2366.22 555.28,2366.47"/>
    </edge>
    <edge id=":8847805887_7" function="internal">
        <lane id=":8847805887_7_0" index="0" disallow="tram rail_urban rail rail_electric rail_fast ship" speed="22.22" length="14.40" shape="549.47,2361.10 550.02,2375.49"/>
    </edge>
    <edge id=":8847805887_8" function="internal">
        <lane id=":8847805887_8_0" index="0" disallow="tram rail_urban rail rail_electric rail_fast ship" speed="3.65" length="2.34" shape="549.47,2361.10 548.72,2362.33 547.93,2362.76"/>
    </edge>
    <edge id=":8847805887_11" function="internal">
        <lane id=":8847805887_11_0" index="0" disallow="tram rail_urban rail rail_electric rail_fast ship" speed="3.65" length="2.34" shape="547.93,2362.76 547.12,2362.39 546.27,2361.22"/>
    </edge>
    <edge id=":8847805899_0" function="internal">
        <lane id=":8847805899_0_0" index="0" disallow="tram rail_urban rail rail_electric rail_fast ship" speed="6.49" length="9.03" shape="1057.52,2355.32 1057.10,2352.87 1055.99,2351.16 1054.21,2350.18 1051.74,2349.92"/>
    </edge>
    <edge id=":8847805899_1" function="internal">
        <lane id=":8847805899_1_0" index="0" disallow="tram rail_urban rail rail_electric rail_fast ship" speed="22.22" length="14.43" shape="1057.52,2355.32 1056.97,2340.90"/>
    </edge>
    <edge id=":8847805899_2" function="internal">
        <lane id=":8847805899_2_0" index="0" disallow="tram rail_urban rail rail_electric rail_fast ship" speed="8.04" length="14.22" shape="1057.52,2355.32 1057.95,2351.44 1059.51,2348.62 1062.20,2346.86 1066.02,2346.15"/>
    </edge>
    <edge id=":8847805899_3" function="internal">
        <lane id=":8847805899_3_0" index="0" disallow="tram rail_urban rail rail_electric rail_fast ship" speed="3.65" length="4.67" shape="1057.52,2355.32 1058.29,2354.09 1059.07,2353.67 1059.89,2354.05 1060.72,2355.22"/>
    </edge>
    <edge id=":8847805899_4" function="internal">
        <lane id=":8847805899_4_0" index="0" disallow="tram rail_urban rail rail_electric rail_fast ship" speed="6.55" length="9.09" shape="1066.15,2349.35 1063.71,2349.80 1061.99,2350.93 1061.00,2352.74 1060.72,2355.22"/>
    </edge>
    <edge id=":8847805899_5" function="internal">
        <lane id=":8847805899_5_0" index="0" disallow="tram rail_urban rail rail_electric rail_fast ship" speed="22.22" length="14.41" shape="1066.15,2349.35 1051.74,2349.92"/>
    </edge>
    <edge id=":8847805899_6" function="internal">
        <lane id=":8847805899_6_0" index="0" disallow="tram rail_urban rail rail_electric rail_fast ship" speed="8.02" length="5.92" shape="1066.15,2349.35 1062.29,2348.95 1060.49,2347.97"/>
    </edge>
    <edge id=":8847805899_7" function="internal">
        <lane id=":8847805899_7_0" index="0" disallow="tram rail_urban rail rail_electric rail_fast ship" speed="3.65" length="2.34" shape="1066.15,2349.35 1064.91,2348.60 1064.48,2347.82"/>
    </edge>
    <edge id=":8847805899_16" function="internal">
        <lane id=":8847805899_16_0" index="0" disallow="tram rail_urban rail rail_electric rail_fast ship" speed="8.02" length="8.28" shape="1060.49,2347.97 1059.47,2347.41 1057.70,2344.73 1056.97,2340.90"/>
    </edge>
    <edge id=":8847805899_17" function="internal">
        <lane id=":8847805899_17_0" index="0" disallow="tram rail_urban rail rail_electric rail_fast ship" speed="3.65" length="2.34" shape="1064.48,2347.82 1064.85,2347.00 1066.02,2346.15"/>
    </edge>
    <edge id=":8847805899_8" function="internal">
        <lane id=":8847805899_8_0" index="0" disallow="tram rail_urban rail rail_electric rail_fast ship" speed="6.53" length="9.07" shape="1060.17,2340.75 1060.63,2343.20 1061.76,2344.91 1063.56,2345.90 1066.02,2346.15"/>
    </edge>
    <edge id=":8847805899_9" function="internal">
        <lane id=":8847805899_9_0" index="0" disallow="tram rail_urban rail rail_electric rail_fast ship" speed="22.22" length="14.48" shape="1060.17,2340.75 1060.72,2355.22"/>
    </edge>
    <edge id=":8847805899_10" function="internal">
        <lane id=":8847805899_10_0" index="0" disallow="tram rail_urban rail rail_electric rail_fast ship" speed="7.99" length="14.23" shape="1060.17,2340.75 1059.80,2344.63 1058.27,2347.46 1055.58,2349.22 1051.74,2349.92"/>
    </edge>
    <edge id=":8847805899_11" function="internal">
        <lane id=":8847805899_11_0" index="0" disallow="tram rail_urban rail rail_electric rail_fast ship" speed="3.65" length="4.67" shape="1060.17,2340.75 1059.42,2341.99 1058.64,2342.42 1057.83,2342.06 1056.97,2340.90"/>
    </edge>
    <edge id=":8847805899_12" function="internal">
        <lane id=":8847805899_12_0" index="0" disallow="tram rail_urban rail rail_electric rail_fast ship" speed="6.49" length="9.04" shape="1051.62,2346.73 1054.06,2346.28 1055.76,2345.16 1056.73,2343.37 1056.97,2340.90"/>
    </edge>
    <edge id=":8847805899_13" function="internal">
        <lane id=":8847805899_13_0" index="0" disallow="tram rail_urban rail rail_electric rail_fast ship" speed="22.22" length="14.41" shape="1051.62,2346.73 1066.02,2346.15"/>
    </edge>
    <edge id=":8847805899_14" function="internal">
        <lane id=":8847805899_14_0" index="0" disallow="tram rail_urban rail rail_electric rail_fast ship" speed="7.98" length="5.92" shape="1051.62,2346.73 1055.50,2347.13 1057.27,2348.10"/>
    </edge>
    <edge id=":8847805899_15" function="internal">
        <lane id=":8847805899_15_0" index="0" disallow="tram rail_urban rail rail_electric rail_fast ship" speed="3.65" length="2.34" shape="1051.62,2346.73 1052.85,2347.48 1053.28,2348.26"/>
    </edge>
    <edge id=":8847805899_18" function="internal">
        <lane id=":8847805899_18_0" index="0" disallow="tram rail_urban rail rail_electric rail_fast ship" speed="7.98" length="8.30" shape="1057.27,2348.10 1058.31,2348.68 1060.05,2351.37 1060.72,2355.22"/>
    </edge>
    <edge id=":8847805899_19" function="internal">
        <lane id=":8847805899_19_0" index="0" disallow="tram rail_urban rail rail_electric rail_fast ship" speed="3.65" length="2.34" shape="1053.28,2348.26 1052.91,2349.08 1051.74,2349.92"/>
    </edge>
    <edge id=":9030530183_0" function="internal">
        <lane id=":9030530183_0_0" index="0" disallow="tram rail_urban rail rail_electric rail_fast ship" speed="6.06" length="8.83" shape="2764.01,2772.82 2763.55,2770.49 2762.38,2769.02 2760.50,2768.42 2757.91,2768.67"/>
        <lane id=":9030530183_0_1" index="1" disallow="tram rail_urban rail rail_electric rail_fast ship" speed="7.72" length="15.07" shape="2767.21,2772.69 2766.42,2768.73 2764.42,2766.23 2761.20,2765.21 2756.77,2765.66"/>
        <lane id=":9030530183_0_2" index="2" disallow="tram rail_urban rail rail_electric rail_fast ship" speed="8.47" length="18.35" shape="2767.21,2772.69 2766.30,2767.32 2764.07,2763.85 2760.51,2762.29 2755.63,2762.64"/>
    </edge>
    <edge id=":9030530183_3" function="internal">
        <lane id=":9030530183_3_0" index="0" disallow="tram rail_urban rail rail_electric rail_fast ship" speed="3.65" length="4.67" shape="2767.21,2772.69 2767.96,2771.46 2768.75,2771.03 2769.56,2771.40 2770.41,2772.56"/>
    </edge>
    <edge id=":9030530183_4" function="internal">
        <lane id=":9030530183_4_0" index="0" disallow="tram rail_urban rail rail_electric rail_fast ship" speed="8.72" length="12.86" shape="2778.05,2761.19 2775.97,2762.58 2774.53,2764.92 2773.75,2768.20 2773.61,2772.44"/>
        <lane id=":9030530183_4_1" index="1" disallow="tram rail_urban rail rail_electric rail_fast ship" speed="9.30" length="14.75" shape="2778.05,2761.19 2774.59,2763.04 2772.16,2765.54 2770.76,2768.72 2770.41,2772.56"/>
    </edge>
    <edge id=":9030530183_6" function="internal">
        <lane id=":9030530183_6_0" index="0" disallow="tram rail_urban rail rail_electric rail_fast ship" speed="27.78" length="21.53" shape="2778.05,2761.19 2772.14,2763.62 2768.14,2765.44 2764.06,2767.00 2757.91,2768.67"/>
        <lane id=":9030530183_6_1" index="1" disallow="tram rail_urban rail rail_electric rail_fast ship" speed="27.78" length="21.53" shape="2776.92,2758.20 2771.00,2760.62 2767.00,2762.43 2762.92,2763.99 2756.77,2765.66"/>
        <lane id=":9030530183_6_2" index="2" disallow="tram rail_urban rail rail_electric rail_fast ship" speed="27.78" length="21.53" shape="2775.79,2755.21 2769.87,2757.63 2765.86,2759.43 2761.78,2760.97 2755.63,2762.64"/>
        <lane id=":9030530183_6_3" index="3" disallow="tram rail_urban rail rail_electric rail_fast ship" speed="27.78" length="21.53" shape="2774.66,2752.21 2768.74,2754.63 2764.73,2756.42 2760.64,2757.96 2754.49,2759.62"/>
    </edge>
    <edge id=":9033953083_0" function="internal">
        <lane id=":9033953083_0_0" index="0" disallow="tram rail_urban rail rail_electric rail_fast ship" speed="3.65" length="4.67" shape="711.78,3625.97 713.02,3626.70 713.46,3627.48 713.10,3628.30 711.95,3629.16"/>
    </edge>
    <edge id=":9968289782_0" function="internal">
        <lane id=":9968289782_0_0" index="0" disallow="tram rail_urban rail rail_electric rail_fast ship" speed="3.65" length="4.67" shape="1041.41,2008.50 1042.15,2007.26 1042.93,2006.83 1043.75,2007.19 1044.61,2008.35"/>
    </edge>
    <edge id=":9968289783_0" function="internal">
        <lane id=":9968289783_0_0" index="0" disallow="tram rail_urban rail rail_electric rail_fast ship" speed="3.65" length="4.67" shape="515.24,1474.20 516.00,1472.97 516.79,1472.55 517.60,1472.92 518.44,1474.10"/>
    </edge>
    <edge id=":9969220914_0" function="internal">
        <lane id=":9969220914_0_0" index="0" disallow="tram rail_urban rail rail_electric rail_fast ship" speed="3.65" length="4.67" shape="1975.84,2274.10 1976.60,2272.87 1977.38,2272.44 1978.20,2272.81 1979.04,2273.98"/>
    </edge>
    <edge id=":9969220915_0" function="internal">
        <lane id=":9969220915_0_0" index="0" disallow="tram rail_urban rail rail_electric rail_fast ship" speed="3.65" length="4.67" shape="2820.13,4411.56 2819.34,4412.76 2818.54,4413.17 2817.74,4412.77 2816.93,4411.58"/>
    </edge>
    <edge id=":cluster_10566066588_2469949688_0" function="internal">
        <lane id=":cluster_10566066588_2469949688_0_0" index="0" disallow="tram rail_urban rail rail_electric rail_fast ship" speed="6.73" length="9.51" shape="584.13,3380.58 583.66,3378.14 582.46,3376.40 580.51,3375.36 577.84,3375.03"/>
    </edge>
    <edge id=":cluster_10566066588_2469949688_1" function="internal">
        <lane id=":cluster_10566066588_2469949688_1_0" index="0" disallow="tram rail_urban rail rail_electric rail_fast ship" speed="22.22" length="25.81" shape="584.13,3380.58 583.19,3354.79"/>
    </edge>
    <edge id=":cluster_10566066588_2469949688_2" function="internal">
        <lane id=":cluster_10566066588_2469949688_2_0" index="0" disallow="tram rail_urban rail rail_electric rail_fast ship" speed="10.28" length="24.13" shape="584.13,3380.58 584.36,3371.72 585.78,3365.35 588.40,3361.46 592.20,3360.06"/>
    </edge>
    <edge id=":cluster_10566066588_2469949688_3" function="internal">
        <lane id=":cluster_10566066588_2469949688_3_0" index="0" disallow="tram rail_urban rail rail_electric rail_fast ship" speed="3.65" length="4.67" shape="584.13,3380.58 584.89,3379.35 585.67,3378.92 586.49,3379.29 587.33,3380.46"/>
    </edge>
    <edge id=":cluster_10566066588_2469949688_4" function="internal">
        <lane id=":cluster_10566066588_2469949688_4_0" index="0" disallow="tram rail_urban rail rail_electric rail_fast ship" speed="6.55" length="9.04" shape="592.72,3374.61 590.29,3375.08 588.58,3376.22 587.59,3378.01 587.33,3380.46"/>
    </edge>
    <edge id=":cluster_10566066588_2469949688_5" function="internal">
        <lane id=":cluster_10566066588_2469949688_5_0" index="0" disallow="tram rail_urban rail rail_electric rail_fast ship" speed="27.78" length="14.75" shape="592.72,3374.61 577.84,3375.03"/>
        <lane id=":cluster_10566066588_2469949688_5_1" index="1" disallow="tram rail_urban rail rail_electric rail_fast ship" speed="27.78" length="14.75" shape="592.61,3371.41 577.82,3371.83"/>
        <lane id=":cluster_10566066588_2469949688_5_2" index="2" disallow="tram rail_urban rail rail_electric rail_fast ship" speed="27.78" length="14.75" shape="592.49,3368.21 577.80,3368.63"/>
        <lane id=":cluster_10566066588_2469949688_5_3" index="3" disallow="tram rail_urban rail rail_electric rail_fast ship" speed="27.78" length="14.75" shape="592.38,3365.01 577.78,3365.43"/>
    </edge>
    <edge id=":cluster_10566066588_2469949688_9" function="internal">
        <lane id=":cluster_10566066588_2469949688_9_0" index="0" disallow="tram rail_urban rail rail_electric rail_fast ship" speed="8.34" length="8.15" shape="592.38,3365.01 588.51,3364.54 585.68,3362.68 585.27,3361.92"/>
    </edge>
    <edge id=":cluster_10566066588_2469949688_10" function="internal">
        <lane id=":cluster_10566066588_2469949688_10_0" index="0" disallow="tram rail_urban rail rail_electric rail_fast ship" speed="4.28" length="4.59" shape="592.38,3365.01 590.48,3363.84 589.82,3362.63 590.22,3361.74"/>
    </edge>
    <edge id=":cluster_10566066588_2469949688_19" function="internal">
        <lane id=":cluster_10566066588_2469949688_19_0" index="0" disallow="tram rail_urban rail rail_electric rail_fast ship" speed="8.34" length="7.53" shape="585.27,3361.92 583.91,3359.43 583.19,3354.79"/>
    </edge>
    <edge id=":cluster_10566066588_2469949688_20" function="internal">
        <lane id=":cluster_10566066588_2469949688_20_0" index="0" disallow="tram rail_urban rail rail_electric rail_fast ship" speed="4.28" length="2.64" shape="590.22,3361.74 590.39,3361.37 592.20,3360.06"/>
    </edge>
    <edge id=":cluster_10566066588_2469949688_11" function="internal">
        <lane id=":cluster_10566066588_2469949688_11_0" index="0" disallow="tram rail_urban rail rail_electric rail_fast ship" speed="6.51" length="9.04" shape="586.39,3354.67 586.83,3357.11 587.95,3358.82 589.74,3359.80 592.20,3360.06"/>
    </edge>
    <edge id=":cluster_10566066588_2469949688_12" function="internal">
        <lane id=":cluster_10566066588_2469949688_12_0" index="0" disallow="tram rail_urban rail rail_electric rail_fast ship" speed="22.22" length="25.81" shape="586.39,3354.67 587.33,3380.46"/>
    </edge>
    <edge id=":cluster_10566066588_2469949688_13" function="internal">