<?xml version="1.0" encoding="UTF-8"?>

<!-- generated on 2023-03-03 14:41:26 by Eclipse SUMO netconvert Version 1.10.0
<configuration xmlns:xsi="http://www.w3.org/2001/XMLSchema-instance" xsi:noNamespaceSchemaLocation="http://sumo.dlr.de/xsd/netconvertConfiguration.xsd">

    <input>
        <type-files value="D:\veins\Eclipse\Sumo\data\typemap\osmNetconvert.typ.xml"/>
        <osm-files value="osm_bbox.osm.xml"/>
    </input>

    <output>
        <output-file value="osm.net.xml"/>
        <output.street-names value="true"/>
        <output.original-names value="true"/>
    </output>

    <projection>
        <proj.utm value="true"/>
    </projection>

    <processing>
        <geometry.remove value="true"/>
        <roundabouts.guess value="true"/>
    </processing>

    <tls_building>
        <tls.discard-simple value="true"/>
        <tls.join value="true"/>
        <tls.guess-signals value="true"/>
        <tls.default-type value="actuated"/>
    </tls_building>

    <ramp_guessing>
        <ramps.guess value="true"/>
    </ramp_guessing>

    <edge_removal>
        <keep-edges.by-vclass value="passenger"/>
    </edge_removal>

    <junctions>
        <junctions.join value="true"/>
        <junctions.corner-detail value="5"/>
    </junctions>

    <report>
        <verbose value="true"/>
        <aggregate-warnings value="5"/>
    </report>

</configuration>
-->

<net version="1.9" junctionCornerDetail="5" limitTurnSpeed="5.50" xmlns:xsi="http://www.w3.org/2001/XMLSchema-instance" xsi:noNamespaceSchemaLocation="http://sumo.dlr.de/xsd/net_file.xsd">

    <location netOffset="-314040.37,-5059453.05" convBoundary="0.00,0.00,2340.34,4495.20" origBoundary="126.611922,45.664211,126.642368,45.704441" projParameter="+proj=utm +zone=52 +ellps=WGS84 +datum=WGS84 +units=m +no_defs"/>

    <type id="highway.bridleway" priority="1" numLanes="1" speed="2.78" allow="pedestrian" oneway="1" width="2.00"/>
    <type id="highway.bus_guideway" priority="1" numLanes="1" speed="27.78" allow="bus" oneway="1"/>
    <type id="highway.cycleway" priority="1" numLanes="1" speed="8.33" allow="bicycle" oneway="0" width="1.00"/>
    <type id="highway.footway" priority="1" numLanes="1" speed="2.78" allow="pedestrian" oneway="1" width="2.00"/>
    <type id="highway.ford" priority="1" numLanes="1" speed="2.78" allow="army" oneway="0"/>
    <type id="highway.living_street" priority="2" numLanes="1" speed="2.78" disallow="tram rail_urban rail rail_electric rail_fast ship" oneway="0"/>
    <type id="highway.motorway" priority="14" numLanes="2" speed="39.44" allow="private emergency authority army vip passenger hov taxi bus coach delivery truck trailer motorcycle evehicle custom1 custom2" oneway="1"/>
    <type id="highway.motorway_link" priority="9" numLanes="1" speed="22.22" allow="private emergency authority army vip passenger hov taxi bus coach delivery truck trailer motorcycle evehicle custom1 custom2" oneway="1"/>
    <type id="highway.path" priority="1" numLanes="1" speed="2.78" allow="pedestrian bicycle" oneway="0" width="2.00"/>
    <type id="highway.pedestrian" priority="1" numLanes="1" speed="2.78" allow="pedestrian" oneway="1" width="2.00"/>
    <type id="highway.primary" priority="12" numLanes="2" speed="27.78" disallow="tram rail_urban rail rail_electric rail_fast ship" oneway="0"/>
    <type id="highway.primary_link" priority="7" numLanes="1" speed="22.22" disallow="tram rail_urban rail rail_electric rail_fast ship" oneway="0"/>
    <type id="highway.raceway" priority="15" numLanes="2" speed="83.33" allow="vip" oneway="0"/>
    <type id="highway.residential" priority="3" numLanes="1" speed="13.89" disallow="tram rail_urban rail rail_electric rail_fast ship" oneway="0"/>
    <type id="highway.secondary" priority="11" numLanes="1" speed="27.78" disallow="tram rail_urban rail rail_electric rail_fast ship" oneway="0"/>
    <type id="highway.secondary_link" priority="6" numLanes="1" speed="22.22" disallow="tram rail_urban rail rail_electric rail_fast ship" oneway="0"/>
    <type id="highway.service" priority="1" numLanes="1" speed="5.56" allow="pedestrian delivery bicycle" oneway="0"/>
    <type id="highway.stairs" priority="1" numLanes="1" speed="1.39" allow="pedestrian" oneway="1" width="2.00"/>
    <type id="highway.step" priority="1" numLanes="1" speed="1.39" allow="pedestrian" oneway="1" width="2.00"/>
    <type id="highway.steps" priority="1" numLanes="1" speed="1.39" allow="pedestrian" oneway="1" width="2.00"/>
    <type id="highway.tertiary" priority="10" numLanes="1" speed="22.22" disallow="tram rail_urban rail rail_electric rail_fast ship" oneway="0"/>
    <type id="highway.tertiary_link" priority="5" numLanes="1" speed="22.22" disallow="tram rail_urban rail rail_electric rail_fast ship" oneway="0"/>
    <type id="highway.track" priority="1" numLanes="1" speed="5.56" allow="pedestrian motorcycle moped bicycle" oneway="0"/>
    <type id="highway.trunk" priority="13" numLanes="2" speed="27.78" disallow="pedestrian bicycle tram rail_urban rail rail_electric rail_fast ship" oneway="0"/>
    <type id="highway.trunk_link" priority="8" numLanes="1" speed="22.22" disallow="pedestrian bicycle tram rail_urban rail rail_electric rail_fast ship" oneway="0"/>
    <type id="highway.unclassified" priority="4" numLanes="1" speed="13.89" disallow="tram rail_urban rail rail_electric rail_fast ship" oneway="0"/>
    <type id="highway.unsurfaced" priority="1" numLanes="1" speed="8.33" disallow="tram rail_urban rail rail_electric rail_fast ship" oneway="0"/>
    <type id="railway.highspeed" priority="21" numLanes="1" speed="69.44" allow="rail_fast" oneway="1"/>
    <type id="railway.light_rail" priority="19" numLanes="1" speed="27.78" allow="rail_urban" oneway="1"/>
    <type id="railway.preserved" priority="16" numLanes="1" speed="27.78" allow="rail" oneway="1"/>
    <type id="railway.rail" priority="20" numLanes="1" speed="44.44" allow="rail" oneway="1"/>
    <type id="railway.subway" priority="18" numLanes="1" speed="27.78" allow="rail_urban" oneway="1"/>
    <type id="railway.tram" priority="17" numLanes="1" speed="13.89" allow="tram" oneway="1"/>

    <edge id=":10012282850_0" function="internal">
        <lane id=":10012282850_0_0" index="0" disallow="tram rail_urban rail rail_electric rail_fast ship" speed="27.78" length="4.01" shape="1566.88,1879.41 1566.45,1883.42"/>
        <lane id=":10012282850_0_1" index="1" disallow="tram rail_urban rail rail_electric rail_fast ship" speed="27.78" length="4.01" shape="1563.70,1879.04 1563.27,1883.04"/>
        <lane id=":10012282850_0_2" index="2" disallow="tram rail_urban rail rail_electric rail_fast ship" speed="27.78" length="4.01" shape="1560.52,1878.68 1560.10,1882.66"/>
        <lane id=":10012282850_0_3" index="3" disallow="tram rail_urban rail rail_electric rail_fast ship" speed="27.78" length="4.01" shape="1557.34,1878.31 1556.92,1882.27"/>
    </edge>
    <edge id=":10012282850_4" function="internal">
        <lane id=":10012282850_4_0" index="0" disallow="tram rail_urban rail rail_electric rail_fast ship" speed="18.31" length="4.37" shape="1578.52,1880.76 1578.84,1881.99 1579.10,1882.85 1579.23,1883.71 1579.16,1884.96"/>
        <lane id=":10012282850_4_1" index="1" disallow="tram rail_urban rail rail_electric rail_fast ship" speed="18.40" length="4.37" shape="1575.16,1880.37 1575.52,1881.61 1575.84,1882.46 1576.03,1883.32 1575.98,1884.58"/>
        <lane id=":10012282850_4_2" index="2" disallow="tram rail_urban rail rail_electric rail_fast ship" speed="18.50" length="4.37" shape="1571.80,1879.98 1572.19,1881.23 1572.57,1882.07 1572.82,1882.92 1572.80,1884.19"/>
        <lane id=":10012282850_4_3" index="3" disallow="tram rail_urban rail rail_electric rail_fast ship" speed="18.63" length="4.37" shape="1568.45,1879.59 1568.86,1880.85 1569.31,1881.69 1569.62,1882.53 1569.63,1883.81"/>
    </edge>
    <edge id=":10012282852_0" function="internal">
        <lane id=":10012282852_0_0" index="0" disallow="tram rail_urban rail rail_electric rail_fast ship" speed="25.00" length="6.61" shape="1528.72,1878.84 1529.03,1876.91 1529.43,1875.63 1529.97,1874.39 1530.72,1872.58"/>
    </edge>
    <edge id=":10012282852_1" function="internal">
        <lane id=":10012282852_1_0" index="0" disallow="tram rail_urban rail rail_electric rail_fast ship" speed="27.78" length="4.68" shape="1531.90,1879.22 1532.61,1873.32"/>
        <lane id=":10012282852_1_1" index="1" disallow="tram rail_urban rail rail_electric rail_fast ship" speed="27.78" length="4.68" shape="1535.07,1879.60 1535.69,1874.54"/>
        <lane id=":10012282852_1_2" index="2" disallow="tram rail_urban rail rail_electric rail_fast ship" speed="27.78" length="4.68" shape="1538.25,1879.99 1538.76,1875.76"/>
        <lane id=":10012282852_1_3" index="3" disallow="tram rail_urban rail rail_electric rail_fast ship" speed="27.78" length="4.68" shape="1541.43,1880.37 1541.84,1876.98"/>
    </edge>
    <edge id=":10012282855_0" function="internal">
        <lane id=":10012282855_0_0" index="0" disallow="tram rail_urban rail rail_electric rail_fast ship" speed="8.04" length="14.30" shape="1529.00,1834.72 1529.78,1833.94 1530.51,1831.82 1531.17,1828.38 1531.78,1823.60"/>
        <lane id=":10012282855_0_1" index="1" disallow="tram rail_urban rail rail_electric rail_fast ship" speed="8.51" length="14.30" shape="1529.00,1834.72 1531.21,1833.79 1532.93,1831.68 1534.19,1828.40 1534.97,1823.94"/>
        <lane id=":10012282855_0_2" index="2" disallow="tram rail_urban rail rail_electric rail_fast ship" speed="9.08" length="14.30" shape="1529.00,1834.72 1532.63,1833.64 1535.36,1831.54 1537.20,1828.42 1538.15,1824.28"/>
        <lane id=":10012282855_0_3" index="3" disallow="tram rail_urban rail rail_electric rail_fast ship" speed="9.68" length="14.30" shape="1529.00,1834.72 1534.05,1833.49 1537.79,1831.40 1540.22,1828.44 1541.33,1824.62"/>
    </edge>
    <edge id=":10012282855_4" function="internal">
        <lane id=":10012282855_4_0" index="0" disallow="tram rail_urban rail rail_electric rail_fast ship" speed="27.78" length="12.45" shape="1536.82,1836.65 1538.15,1824.28"/>
        <lane id=":10012282855_4_1" index="1" disallow="tram rail_urban rail rail_electric rail_fast ship" speed="27.78" length="12.45" shape="1540.00,1837.00 1541.33,1824.62"/>
        <lane id=":10012282855_4_2" index="2" disallow="tram rail_urban rail rail_electric rail_fast ship" speed="27.78" length="12.45" shape="1543.18,1837.34 1544.51,1824.96"/>
        <lane id=":10012282855_4_3" index="3" disallow="tram rail_urban rail rail_electric rail_fast ship" speed="27.78" length="12.45" shape="1546.36,1837.68 1547.69,1825.30"/>
    </edge>
    <edge id=":10012282857_0" function="internal">
        <lane id=":10012282857_0_0" index="0" disallow="tram rail_urban rail rail_electric rail_fast ship" speed="22.22" length="11.20" shape="1690.95,1873.07 1679.84,1871.64"/>
    </edge>
    <edge id=":10012282857_1" function="internal">
        <lane id=":10012282857_1_0" index="0" disallow="tram rail_urban rail rail_electric rail_fast ship" speed="6.47" length="9.03" shape="1690.95,1873.07 1688.56,1872.41 1686.97,1871.14 1686.17,1869.26 1686.18,1866.78"/>
    </edge>
    <edge id=":10012282858_0" function="internal">
        <lane id=":10012282858_0_0" index="0" disallow="tram rail_urban rail rail_electric rail_fast ship" speed="22.22" length="11.03" shape="1682.16,1856.02 1693.10,1857.38"/>
    </edge>
    <edge id=":10012282858_1" function="internal">
        <lane id=":10012282858_1_0" index="0" disallow="tram rail_urban rail rail_electric rail_fast ship" speed="6.53" length="8.95" shape="1686.86,1862.20 1687.55,1859.84 1688.82,1858.25 1690.67,1857.43 1693.10,1857.38"/>
    </edge>
    <edge id=":10012282859_0" function="internal">
        <lane id=":10012282859_0_0" index="0" disallow="tram rail_urban rail rail_electric rail_fast ship" speed="22.22" length="11.17" shape="1443.51,1826.19 1454.60,1827.57"/>
    </edge>
    <edge id=":10012282859_1" function="internal">
        <lane id=":10012282859_1_0" index="0" disallow="tram rail_urban rail rail_electric rail_fast ship" speed="6.51" length="9.02" shape="1443.51,1826.19 1445.89,1826.84 1447.49,1828.10 1448.32,1829.96 1448.38,1832.43"/>
    </edge>
    <edge id=":10012282860_0" function="internal">
        <lane id=":10012282860_0_0" index="0" disallow="tram rail_urban rail rail_electric rail_fast ship" speed="22.22" length="11.20" shape="1452.91,1841.54 1441.80,1840.14"/>
    </edge>
    <edge id=":10012282860_1" function="internal">
        <lane id=":10012282860_1_0" index="0" disallow="tram rail_urban rail rail_electric rail_fast ship" speed="6.49" length="9.03" shape="1448.03,1835.27 1447.39,1837.66 1446.14,1839.27 1444.27,1840.10 1441.80,1840.14"/>
    </edge>
    <edge id=":2511162032_0" function="internal">
        <lane id=":2511162032_0_0" index="0" disallow="tram rail_urban rail rail_electric rail_fast ship" speed="3.65" length="4.67" shape="-0.20,2373.43 -1.29,2372.49 -1.59,2371.65 -1.09,2370.90 0.20,2370.26"/>
    </edge>
    <edge id=":2511162039_0" function="internal">
        <lane id=":2511162039_0_0" index="0" disallow="tram rail_urban rail rail_electric rail_fast ship" speed="22.22" length="20.85" shape="1462.41,2552.84 1441.70,2550.45"/>
    </edge>
    <edge id=":2511162039_1" function="internal">
        <lane id=":2511162039_1_0" index="0" disallow="tram rail_urban rail rail_electric rail_fast ship" speed="7.28" length="11.74" shape="1462.41,2552.84 1460.01,2552.02 1458.45,2550.19 1457.75,2547.34 1457.90,2543.48"/>
    </edge>
    <edge id=":2511162039_2" function="internal">
        <lane id=":2511162039_2_0" index="0" disallow="tram rail_urban rail rail_electric rail_fast ship" speed="3.65" length="4.67" shape="1462.41,2552.84 1461.30,2551.91 1460.99,2551.07 1461.48,2550.32 1462.75,2549.66"/>
    </edge>
    <edge id=":2511162039_3" function="internal">
        <lane id=":2511162039_3_0" index="0" disallow="tram rail_urban rail rail_electric rail_fast ship" speed="6.57" length="9.17" shape="1442.09,2547.27 1444.56,2547.21 1446.43,2546.35 1447.70,2544.69 1448.38,2542.23"/>
    </edge>
    <edge id=":2511162039_4" function="internal">
        <lane id=":2511162039_4_0" index="0" disallow="tram rail_urban rail rail_electric rail_fast ship" speed="22.22" length="20.81" shape="1442.09,2547.27 1462.75,2549.66"/>
    </edge>
    <edge id=":2511162039_5" function="internal">
        <lane id=":2511162039_5_0" index="0" disallow="tram rail_urban rail rail_electric rail_fast ship" speed="3.65" length="4.67" shape="1442.09,2547.27 1443.18,2548.21 1443.48,2549.05 1442.99,2549.80 1441.70,2550.45"/>
    </edge>
    <edge id=":2511162039_6" function="internal">
        <lane id=":2511162039_6_0" index="0" disallow="tram rail_urban rail rail_electric rail_fast ship" speed="6.51" length="9.01" shape="1446.58,2556.66 1446.52,2554.20 1445.69,2552.34 1444.08,2551.09 1441.70,2550.45"/>
    </edge>
    <edge id=":2511162039_7" function="internal">
        <lane id=":2511162039_7_0" index="0" disallow="tram rail_urban rail rail_electric rail_fast ship" speed="27.78" length="14.48" shape="1446.58,2556.66 1448.38,2542.23"/>
        <lane id=":2511162039_7_1" index="1" disallow="tram rail_urban rail rail_electric rail_fast ship" speed="27.78" length="14.48" shape="1449.76,2557.04 1451.55,2542.65"/>
        <lane id=":2511162039_7_2" index="2" disallow="tram rail_urban rail rail_electric rail_fast ship" speed="27.78" length="14.48" shape="1452.94,2557.41 1454.72,2543.06"/>
        <lane id=":2511162039_7_3" index="3" disallow="tram rail_urban rail rail_electric rail_fast ship" speed="27.78" length="14.48" shape="1456.12,2557.79 1457.90,2543.48"/>
    </edge>
    <edge id=":2511162039_11" function="internal">
        <lane id=":2511162039_11_0" index="0" disallow="tram rail_urban rail rail_electric rail_fast ship" speed="7.37" length="11.79" shape="1456.12,2557.79 1456.92,2554.00 1458.29,2551.38 1460.24,2549.94 1462.75,2549.66"/>
    </edge>
    <edge id=":2511162057_0" function="internal">
        <lane id=":2511162057_0_0" index="0" disallow="tram rail_urban rail rail_electric rail_fast ship" speed="6.52" length="9.09" shape="1495.03,2556.60 1492.56,2556.63 1490.69,2557.47 1489.42,2559.09 1488.77,2561.51"/>
    </edge>
    <edge id=":2511162057_1" function="internal">
        <lane id=":2511162057_1_0" index="0" disallow="tram rail_urban rail rail_electric rail_fast ship" speed="22.22" length="20.83" shape="1495.03,2556.60 1474.35,2554.13"/>
    </edge>
    <edge id=":2511162057_2" function="internal">
        <lane id=":2511162057_2_0" index="0" disallow="tram rail_urban rail rail_electric rail_fast ship" speed="3.65" length="4.67" shape="1495.03,2556.60 1493.95,2555.65 1493.65,2554.80 1494.15,2554.06 1495.44,2553.42"/>
    </edge>
    <edge id=":2511162057_3" function="internal">
        <lane id=":2511162057_3_0" index="0" disallow="tram rail_urban rail rail_electric rail_fast ship" speed="6.62" length="9.23" shape="1490.45,2547.01 1490.53,2549.54 1491.39,2551.46 1493.03,2552.75 1495.44,2553.42"/>
    </edge>
    <edge id=":2511162057_4" function="internal">
        <lane id=":2511162057_4_0" index="0" disallow="tram rail_urban rail rail_electric rail_fast ship" speed="27.78" length="14.51" shape="1490.45,2547.01 1488.77,2561.51"/>
        <lane id=":2511162057_4_1" index="1" disallow="tram rail_urban rail rail_electric rail_fast ship" speed="27.78" length="14.51" shape="1487.26,2546.67 1485.59,2561.12"/>
        <lane id=":2511162057_4_2" index="2" disallow="tram rail_urban rail rail_electric rail_fast ship" speed="27.78" length="14.51" shape="1484.08,2546.33 1482.42,2560.72"/>
        <lane id=":2511162057_4_3" index="3" disallow="tram rail_urban rail rail_electric rail_fast ship" speed="27.78" length="14.51" shape="1480.90,2545.99 1479.24,2560.32"/>
    </edge>
    <edge id=":2511162057_8" function="internal">
        <lane id=":2511162057_8_0" index="0" disallow="tram rail_urban rail rail_electric rail_fast ship" speed="7.33" length="11.76" shape="1480.90,2545.99 1480.14,2549.78 1478.80,2552.40 1476.86,2553.85 1474.35,2554.13"/>
    </edge>
    <edge id=":2511162057_9" function="internal">
        <lane id=":2511162057_9_0" index="0" disallow="tram rail_urban rail rail_electric rail_fast ship" speed="22.22" length="20.90" shape="1474.69,2550.95 1495.44,2553.42"/>
    </edge>
    <edge id=":2511162057_10" function="internal">
        <lane id=":2511162057_10_0" index="0" disallow="tram rail_urban rail rail_electric rail_fast ship" speed="7.29" length="11.75" shape="1474.69,2550.95 1477.09,2551.77 1478.65,2553.60 1479.37,2556.45 1479.24,2560.32"/>
    </edge>
    <edge id=":2511162057_11" function="internal">
        <lane id=":2511162057_11_0" index="0" disallow="tram rail_urban rail rail_electric rail_fast ship" speed="3.65" length="4.67" shape="1474.69,2550.95 1475.80,2551.88 1476.11,2552.72 1475.63,2553.47 1474.35,2554.13"/>
    </edge>
    <edge id=":2511164616_0" function="internal">
        <lane id=":2511164616_0_0" index="0" disallow="tram rail_urban rail rail_electric rail_fast ship" speed="22.22" length="14.37" shape="2138.54,2637.29 2124.33,2635.22"/>
    </edge>
    <edge id=":2511164616_1" function="internal">
        <lane id=":2511164616_1_0" index="0" disallow="pedestrian bicycle tram rail_urban rail rail_electric rail_fast ship" speed="7.39" length="11.79" shape="2138.54,2637.29 2136.16,2636.33 2134.64,2634.42 2133.99,2631.55 2134.20,2627.72"/>
    </edge>
    <edge id=":2511164616_2" function="internal">
        <lane id=":2511164616_2_0" index="0" disallow="tram rail_urban rail rail_electric rail_fast ship" speed="3.65" length="4.67" shape="2138.54,2637.29 2137.49,2636.30 2137.23,2635.44 2137.76,2634.72 2139.08,2634.13"/>
    </edge>
    <edge id=":2511164616_3" function="internal">
        <lane id=":2511164616_3_0" index="0" disallow="pedestrian bicycle tram rail_urban rail rail_electric rail_fast ship" speed="6.55" length="8.99" shape="2124.71,2632.05 2127.17,2632.00 2129.05,2631.18 2130.33,2629.60 2131.03,2627.25"/>
    </edge>
    <edge id=":2511164616_4" function="internal">
        <lane id=":2511164616_4_0" index="0" disallow="tram rail_urban rail rail_electric rail_fast ship" speed="22.22" length="14.51" shape="2124.71,2632.05 2139.08,2634.13"/>
    </edge>
    <edge id=":2511164616_5" function="internal">
        <lane id=":2511164616_5_0" index="0" disallow="tram rail_urban rail rail_electric rail_fast ship" speed="3.65" length="4.67" shape="2124.71,2632.05 2125.81,2632.98 2126.11,2633.83 2125.61,2634.57 2124.33,2635.22"/>
    </edge>
    <edge id=":2511164616_6" function="internal">
        <lane id=":2511164616_6_0" index="0" disallow="pedestrian bicycle tram rail_urban rail rail_electric rail_fast ship" speed="6.57" length="9.14" shape="2129.19,2641.62 2129.12,2639.07 2128.29,2637.16 2126.69,2635.87 2124.33,2635.22"/>
    </edge>
    <edge id=":2511164616_7" function="internal">
        <lane id=":2511164616_7_0" index="0" disallow="pedestrian bicycle tram rail_urban rail rail_electric rail_fast ship" speed="27.78" length="14.42" shape="2129.19,2641.62 2131.03,2627.25"/>
        <lane id=":2511164616_7_1" index="1" disallow="pedestrian bicycle tram rail_urban rail rail_electric rail_fast ship" speed="27.78" length="14.42" shape="2132.37,2641.96 2134.20,2627.72"/>
    </edge>
    <edge id=":2511164616_9" function="internal">
        <lane id=":2511164616_9_0" index="0" disallow="pedestrian bicycle tram rail_urban rail rail_electric rail_fast ship" speed="7.19" length="11.75" shape="2132.37,2641.96 2133.15,2638.18 2134.53,2635.61 2136.50,2634.26 2139.08,2634.13"/>
    </edge>
    <edge id=":35472712#3-AddedOffRampNode_0" function="internal">
        <lane id=":35472712#3-AddedOffRampNode_0_0" index="0" disallow="tram rail_urban rail rail_electric rail_fast ship" speed="27.78" length="8.16" shape="1519.61,1980.93 1519.41,1978.43 1518.50,1976.77 1517.60,1975.11 1517.39,1972.60"/>
        <lane id=":35472712#3-AddedOffRampNode_0_1" index="1" disallow="tram rail_urban rail rail_electric rail_fast ship" speed="27.78" length="8.16" shape="1519.61,1980.93 1520.57,1972.99"/>
        <lane id=":35472712#3-AddedOffRampNode_0_2" index="2" disallow="tram rail_urban rail rail_electric rail_fast ship" speed="27.78" length="8.16" shape="1522.79,1981.31 1523.75,1973.37"/>
        <lane id=":35472712#3-AddedOffRampNode_0_3" index="3" disallow="tram rail_urban rail rail_electric rail_fast ship" speed="27.78" length="8.16" shape="1525.97,1981.70 1526.93,1973.75"/>
        <lane id=":35472712#3-AddedOffRampNode_0_4" index="4" disallow="tram rail_urban rail rail_electric rail_fast ship" speed="27.78" length="8.16" shape="1529.14,1982.08 1530.10,1974.14"/>
    </edge>
    <edge id=":4687033843_0" function="internal">
        <lane id=":4687033843_0_0" index="0" disallow="tram rail_urban rail rail_electric rail_fast ship" speed="22.22" length="11.20" shape="775.61,2469.17 764.49,2467.80"/>
    </edge>
    <edge id=":4687033843_1" function="internal">
        <lane id=":4687033843_1_0" index="0" disallow="tram rail_urban rail rail_electric rail_fast ship" speed="7.34" length="4.03" shape="775.61,2469.17 773.25,2468.32 772.28,2467.15"/>
    </edge>
    <edge id=":4687033843_2" function="internal">
        <lane id=":4687033843_2_0" index="0" disallow="tram rail_urban rail rail_electric rail_fast ship" speed="3.65" length="2.34" shape="775.61,2469.17 774.51,2468.23 774.21,2467.39"/>
    </edge>
    <edge id=":4687033843_6" function="internal">
        <lane id=":4687033843_6_0" index="0" disallow="tram rail_urban rail rail_electric rail_fast ship" speed="7.34" length="7.70" shape="772.28,2467.15 771.72,2466.47 771.00,2463.61 771.10,2459.74"/>
    </edge>
    <edge id=":4687033843_7" function="internal">
        <lane id=":4687033843_7_0" index="0" disallow="tram rail_urban rail rail_electric rail_fast ship" speed="3.65" length="2.34" shape="774.21,2467.39 774.71,2466.64 776.00,2465.99"/>
    </edge>
    <edge id=":4687033843_3" function="internal">
        <lane id=":4687033843_3_0" index="0" disallow="tram rail_urban rail rail_electric rail_fast ship" speed="6.49" length="9.03" shape="764.88,2464.62 767.36,2464.57 769.22,2463.74 770.47,2462.13 771.10,2459.74"/>
    </edge>
    <edge id=":4687033843_4" function="internal">
        <lane id=":4687033843_4_0" index="0" disallow="tram rail_urban rail rail_electric rail_fast ship" speed="22.22" length="11.20" shape="764.88,2464.62 776.00,2465.99"/>
    </edge>
    <edge id=":4687033843_5" function="internal">
        <lane id=":4687033843_5_0" index="0" disallow="tram rail_urban rail rail_electric rail_fast ship" speed="3.65" length="2.34" shape="764.88,2464.62 765.98,2465.56 766.27,2466.41"/>
    </edge>
    <edge id=":4687033843_8" function="internal">
        <lane id=":4687033843_8_0" index="0" disallow="tram rail_urban rail rail_electric rail_fast ship" speed="3.65" length="2.34" shape="766.27,2466.41 765.78,2467.15 764.49,2467.80"/>
    </edge>
    <edge id=":4687033850_0" function="internal">
        <lane id=":4687033850_0_0" index="0" disallow="tram rail_urban rail rail_electric rail_fast ship" speed="22.22" length="11.21" shape="806.31,2472.95 795.18,2471.59"/>
    </edge>
    <edge id=":4687033850_1" function="internal">
        <lane id=":4687033850_1_0" index="0" disallow="tram rail_urban rail rail_electric rail_fast ship" speed="3.65" length="2.34" shape="806.31,2472.95 805.21,2472.01 804.91,2471.17"/>
    </edge>
    <edge id=":4687033850_6" function="internal">
        <lane id=":4687033850_6_0" index="0" disallow="tram rail_urban rail rail_electric rail_fast ship" speed="3.65" length="2.34" shape="804.91,2471.17 805.41,2470.42 806.70,2469.78"/>
    </edge>
    <edge id=":4687033850_2" function="internal">
        <lane id=":4687033850_2_0" index="0" disallow="tram rail_urban rail rail_electric rail_fast ship" speed="6.48" length="9.03" shape="801.88,2463.52 801.89,2466.00 802.70,2467.87 804.30,2469.13 806.70,2469.78"/>
    </edge>
    <edge id=":4687033850_3" function="internal">
        <lane id=":4687033850_3_0" index="0" disallow="tram rail_urban rail rail_electric rail_fast ship" speed="7.36" length="11.74" shape="801.88,2463.52 801.01,2467.31 799.60,2469.91 797.66,2471.34 795.18,2471.59"/>
    </edge>
    <edge id=":4687033850_4" function="internal">
        <lane id=":4687033850_4_0" index="0" disallow="tram rail_urban rail rail_electric rail_fast ship" speed="22.22" length="11.20" shape="795.58,2468.41 806.70,2469.78"/>
    </edge>
    <edge id=":4687033850_5" function="internal">
        <lane id=":4687033850_5_0" index="0" disallow="tram rail_urban rail rail_electric rail_fast ship" speed="3.65" length="2.34" shape="795.58,2468.41 796.67,2469.35 796.97,2470.19"/>
    </edge>
    <edge id=":4687033850_7" function="internal">
        <lane id=":4687033850_7_0" index="0" disallow="tram rail_urban rail rail_electric rail_fast ship" speed="3.65" length="2.34" shape="796.97,2470.19 796.47,2470.94 795.18,2471.59"/>
    </edge>
    <edge id=":474836565#5-AddedOnRampNode_0" function="internal">
        <lane id=":474836565#5-AddedOnRampNode_0_0" index="0" disallow="tram rail_urban rail rail_electric rail_fast ship" speed="22.22" length="8.00" shape="921.60,1656.00 923.40,1648.20"/>
    </edge>
    <edge id=":6313053517_0" function="internal">
        <lane id=":6313053517_0_0" index="0" disallow="tram rail_urban rail rail_electric rail_fast ship" speed="3.65" length="4.67" shape="582.38,1656.77 581.54,1655.59 581.45,1654.70 582.11,1654.10 583.52,1653.77"/>
    </edge>
    <edge id=":6313053518_0" function="internal">
        <lane id=":6313053518_0_0" index="0" disallow="tram rail_urban rail rail_electric rail_fast ship" speed="6.84" length="5.37" shape="894.21,1749.92 895.43,1749.26 896.39,1748.39 897.10,1747.29 897.56,1745.99"/>
    </edge>
    <edge id=":6313053518_1" function="internal">
        <lane id=":6313053518_1_0" index="0" disallow="tram rail_urban rail rail_electric rail_fast ship" speed="22.22" length="5.69" shape="899.40,1752.25 900.67,1746.71"/>
    </edge>
    <edge id=":6313053523_0" function="internal">
        <lane id=":6313053523_0_0" index="0" disallow="tram rail_urban rail rail_electric rail_fast ship" speed="7.85" length="3.98" shape="865.16,1766.30 864.28,1765.53 863.59,1765.09 862.80,1764.86 861.64,1764.72"/>
    </edge>
    <edge id=":6313053523_1" function="internal">
        <lane id=":6313053523_1_0" index="0" disallow="tram rail_urban rail rail_electric rail_fast ship" speed="5.15" length="3.43" shape="865.16,1766.30 863.96,1764.78 863.80,1763.41 863.87,1763.32"/>
    </edge>
    <edge id=":6313053523_4" function="internal">
        <lane id=":6313053523_4_0" index="0" disallow="tram rail_urban rail rail_electric rail_fast ship" speed="5.15" length="3.62" shape="863.87,1763.32 864.70,1762.19 866.64,1761.11"/>
    </edge>
    <edge id=":6313053523_2" function="internal">
        <lane id=":6313053523_2_0" index="0" disallow="tram rail_urban rail rail_electric rail_fast ship" speed="11.09" length="4.79" shape="861.95,1761.54 863.37,1761.69 864.36,1761.74 865.32,1761.59 866.64,1761.11"/>
    </edge>
    <edge id=":6313053523_3" function="internal">
        <lane id=":6313053523_3_0" index="0" disallow="tram rail_urban rail rail_electric rail_fast ship" speed="3.65" length="2.34" shape="861.95,1761.54 863.07,1762.45 863.39,1763.29"/>
    </edge>
    <edge id=":6313053523_5" function="internal">
        <lane id=":6313053523_5_0" index="0" disallow="tram rail_urban rail rail_electric rail_fast ship" speed="3.65" length="2.34" shape="863.39,1763.29 862.91,1764.04 861.64,1764.72"/>
    </edge>
    <edge id=":6313053524_0" function="internal">