<?xml version="1.0" encoding="UTF-8"?>

<!-- generated on 2023-03-03 14:34:45 by Eclipse SUMO netconvert Version 1.10.0
<configuration xmlns:xsi="http://www.w3.org/2001/XMLSchema-instance" xsi:noNamespaceSchemaLocation="http://sumo.dlr.de/xsd/netconvertConfiguration.xsd">

    <input>
        <type-files value="D:\veins\Eclipse\Sumo\data\typemap\osmNetconvert.typ.xml"/>
        <osm-files value="osm_bbox.osm.xml"/>
    </input>

    <output>
        <output-file value="osm.net.xml"/>
        <output.street-names value="true"/>
        <output.original-names value="true"/>
    </output>

    <projection>
        <proj.utm value="true"/>
    </projection>

    <processing>
        <geometry.remove value="true"/>
        <roundabouts.guess value="true"/>
    </processing>

    <tls_building>
        <tls.discard-simple value="true"/>
        <tls.join value="true"/>
        <tls.guess-signals value="true"/>
        <tls.default-type value="actuated"/>
    </tls_building>

    <ramp_guessing>
        <ramps.guess value="true"/>
    </ramp_guessing>

    <edge_removal>
        <keep-edges.by-vclass value="passenger"/>
    </edge_removal>

    <junctions>
        <junctions.join value="true"/>
        <junctions.corner-detail value="5"/>
    </junctions>

    <report>
        <verbose value="true"/>
        <aggregate-warnings value="5"/>
    </report>

</configuration>
-->

<net version="1.9" junctionCornerDetail="5" limitTurnSpeed="5.50" xmlns:xsi="http://www.w3.org/2001/XMLSchema-instance" xsi:noNamespaceSchemaLocation="http://sumo.dlr.de/xsd/net_file.xsd">

    <location netOffset="-311065.19,-5044164.17" convBoundary="0.00,0.00,8460.03,8187.87" origBoundary="126.578159,45.497062,126.686108,45.612118" projParameter="+proj=utm +zone=52 +ellps=WGS84 +datum=WGS84 +units=m +no_defs"/>

    <type id="highway.bridleway" priority="1" numLanes="1" speed="2.78" allow="pedestrian" oneway="1" width="2.00"/>
    <type id="highway.bus_guideway" priority="1" numLanes="1" speed="27.78" allow="bus" oneway="1"/>
    <type id="highway.cycleway" priority="1" numLanes="1" speed="8.33" allow="bicycle" oneway="0" width="1.00"/>
    <type id="highway.footway" priority="1" numLanes="1" speed="2.78" allow="pedestrian" oneway="1" width="2.00"/>
    <type id="highway.ford" priority="1" numLanes="1" speed="2.78" allow="army" oneway="0"/>
    <type id="highway.living_street" priority="2" numLanes="1" speed="2.78" disallow="tram rail_urban rail rail_electric rail_fast ship" oneway="0"/>
    <type id="highway.motorway" priority="14" numLanes="2" speed="39.44" allow="private emergency authority army vip passenger hov taxi bus coach delivery truck trailer motorcycle evehicle custom1 custom2" oneway="1"/>
    <type id="highway.motorway_link" priority="9" numLanes="1" speed="22.22" allow="private emergency authority army vip passenger hov taxi bus coach delivery truck trailer motorcycle evehicle custom1 custom2" oneway="1"/>
    <type id="highway.path" priority="1" numLanes="1" speed="2.78" allow="pedestrian bicycle" oneway="0" width="2.00"/>
    <type id="highway.pedestrian" priority="1" numLanes="1" speed="2.78" allow="pedestrian" oneway="1" width="2.00"/>
    <type id="highway.primary" priority="12" numLanes="2" speed="27.78" disallow="tram rail_urban rail rail_electric rail_fast ship" oneway="0"/>
    <type id="highway.primary_link" priority="7" numLanes="1" speed="22.22" disallow="tram rail_urban rail rail_electric rail_fast ship" oneway="0"/>
    <type id="highway.raceway" priority="15" numLanes="2" speed="83.33" allow="vip" oneway="0"/>
    <type id="highway.residential" priority="3" numLanes="1" speed="13.89" disallow="tram rail_urban rail rail_electric rail_fast ship" oneway="0"/>
    <type id="highway.secondary" priority="11" numLanes="1" speed="27.78" disallow="tram rail_urban rail rail_electric rail_fast ship" oneway="0"/>
    <type id="highway.secondary_link" priority="6" numLanes="1" speed="22.22" disallow="tram rail_urban rail rail_electric rail_fast ship" oneway="0"/>
    <type id="highway.service" priority="1" numLanes="1" speed="5.56" allow="pedestrian delivery bicycle" oneway="0"/>
    <type id="highway.stairs" priority="1" numLanes="1" speed="1.39" allow="pedestrian" oneway="1" width="2.00"/>
    <type id="highway.step" priority="1" numLanes="1" speed="1.39" allow="pedestrian" oneway="1" width="2.00"/>
    <type id="highway.steps" priority="1" numLanes="1" speed="1.39" allow="pedestrian" oneway="1" width="2.00"/>
    <type id="highway.tertiary" priority="10" numLanes="1" speed="22.22" disallow="tram rail_urban rail rail_electric rail_fast ship" oneway="0"/>
    <type id="highway.tertiary_link" priority="5" numLanes="1" speed="22.22" disallow="tram rail_urban rail rail_electric rail_fast ship" oneway="0"/>
    <type id="highway.track" priority="1" numLanes="1" speed="5.56" allow="pedestrian motorcycle moped bicycle" oneway="0"/>
    <type id="highway.trunk" priority="13" numLanes="2" speed="27.78" disallow="pedestrian bicycle tram rail_urban rail rail_electric rail_fast ship" oneway="0"/>
    <type id="highway.trunk_link" priority="8" numLanes="1" speed="22.22" disallow="pedestrian bicycle tram rail_urban rail rail_electric rail_fast ship" oneway="0"/>
    <type id="highway.unclassified" priority="4" numLanes="1" speed="13.89" disallow="tram rail_urban rail rail_electric rail_fast ship" oneway="0"/>
    <type id="highway.unsurfaced" priority="1" numLanes="1" speed="8.33" disallow="tram rail_urban rail rail_electric rail_fast ship" oneway="0"/>
    <type id="railway.highspeed" priority="21" numLanes="1" speed="69.44" allow="rail_fast" oneway="1"/>
    <type id="railway.light_rail" priority="19" numLanes="1" speed="27.78" allow="rail_urban" oneway="1"/>
    <type id="railway.preserved" priority="16" numLanes="1" speed="27.78" allow="rail" oneway="1"/>
    <type id="railway.rail" priority="20" numLanes="1" speed="44.44" allow="rail" oneway="1"/>
    <type id="railway.subway" priority="18" numLanes="1" speed="27.78" allow="rail_urban" oneway="1"/>
    <type id="railway.tram" priority="17" numLanes="1" speed="13.89" allow="tram" oneway="1"/>

    <edge id=":-957401745#0-AddedOnRampNode_0" function="internal">
        <lane id=":-957401745#0-AddedOnRampNode_0_0" index="0" disallow="tram rail_urban rail rail_electric rail_fast ship" speed="27.78" length="8.00" shape="6339.98,5361.17 6332.93,5364.95"/>
        <lane id=":-957401745#0-AddedOnRampNode_0_1" index="1" disallow="tram rail_urban rail rail_electric rail_fast ship" speed="27.78" length="8.00" shape="6338.47,5358.35 6331.42,5362.13"/>
    </edge>
    <edge id=":10173929228_0" function="internal">
        <lane id=":10173929228_0_0" index="0" disallow="pedestrian bicycle tram rail_urban rail rail_electric rail_fast ship" speed="25.00" length="2.97" shape="6773.06,5197.17 6774.64,5199.68"/>
    </edge>
    <edge id=":10173929228_1" function="internal">
        <lane id=":10173929228_1_0" index="0" disallow="pedestrian bicycle tram rail_urban rail rail_electric rail_fast ship" speed="27.78" length="3.01" shape="6770.34,5198.86 6771.93,5201.41"/>
        <lane id=":10173929228_1_1" index="1" disallow="pedestrian bicycle tram rail_urban rail rail_electric rail_fast ship" speed="27.78" length="3.01" shape="6767.63,5200.55 6769.23,5203.12"/>
    </edge>
    <edge id=":10173929282_0" function="internal">
        <lane id=":10173929282_0_0" index="0" disallow="pedestrian bicycle tram rail_urban rail rail_electric rail_fast ship" speed="25.00" length="6.28" shape="6733.60,5127.81 6734.49,5129.43 6734.90,5130.63 6735.16,5131.90 6735.59,5133.72"/>
    </edge>
    <edge id=":10173929282_1" function="internal">
        <lane id=":10173929282_1_0" index="0" disallow="pedestrian bicycle tram rail_urban rail rail_electric rail_fast ship" speed="27.78" length="4.51" shape="6730.89,5129.50 6733.80,5134.18"/>
        <lane id=":10173929282_1_1" index="1" disallow="pedestrian bicycle tram rail_urban rail rail_electric rail_fast ship" speed="27.78" length="4.51" shape="6728.17,5131.19 6730.56,5135.02"/>
        <lane id=":10173929282_1_2" index="2" disallow="pedestrian bicycle tram rail_urban rail rail_electric rail_fast ship" speed="27.78" length="4.51" shape="6725.46,5132.89 6727.31,5135.86"/>
    </edge>
    <edge id=":10173929328_0" function="internal">
        <lane id=":10173929328_0_0" index="0" disallow="tram rail_urban rail rail_electric rail_fast ship" speed="27.78" length="3.16" shape="6426.03,5314.88 6423.25,5316.39"/>
        <lane id=":10173929328_0_1" index="1" disallow="tram rail_urban rail rail_electric rail_fast ship" speed="27.78" length="3.16" shape="6424.51,5312.07 6421.73,5313.58"/>
    </edge>
    <edge id=":10173929328_2" function="internal">
        <lane id=":10173929328_2_0" index="0" disallow="tram rail_urban rail rail_electric rail_fast ship" speed="25.00" length="3.16" shape="6427.52,5317.63 6424.78,5319.20"/>
    </edge>
    <edge id=":10173929360_0" function="internal">
        <lane id=":10173929360_0_0" index="0" disallow="tram rail_urban rail rail_electric rail_fast ship" speed="22.22" length="3.16" shape="6370.51,5386.38 6371.33,5385.93 6371.89,5385.61 6372.43,5385.26 6373.21,5384.73"/>
    </edge>
    <edge id=":10173929360_1" function="internal">
        <lane id=":10173929360_1_0" index="0" disallow="tram rail_urban rail rail_electric rail_fast ship" speed="22.22" length="3.16" shape="6372.03,5389.19 6374.81,5387.68"/>
    </edge>
    <edge id=":10173929373_0" function="internal">
        <lane id=":10173929373_0_0" index="0" disallow="tram rail_urban rail rail_electric rail_fast ship" speed="22.22" length="2.96" shape="6326.88,5296.17 6324.27,5297.58"/>
    </edge>
    <edge id=":10173929373_1" function="internal">
        <lane id=":10173929373_1_0" index="0" disallow="tram rail_urban rail rail_electric rail_fast ship" speed="22.22" length="2.99" shape="6328.32,5298.82 6327.59,5299.33 6327.08,5299.67 6326.56,5299.98 6325.78,5300.40"/>
    </edge>
    <edge id=":10173929389_0" function="internal">
        <lane id=":10173929389_0_0" index="0" disallow="tram rail_urban rail rail_electric rail_fast ship" speed="27.78" length="9.58" shape="6527.57,5183.38 6530.60,5192.46"/>
    </edge>
    <edge id=":10173929389_1" function="internal">
        <lane id=":10173929389_1_0" index="0" disallow="tram rail_urban rail rail_electric rail_fast ship" speed="6.42" length="7.98" shape="6527.57,5183.38 6527.85,5185.27 6527.36,5186.95 6526.09,5188.41 6524.05,5189.66"/>
    </edge>
    <edge id=":10173972725_0" function="internal">
        <lane id=":10173972725_0_0" index="0" disallow="tram rail_urban rail rail_electric rail_fast ship" speed="25.00" length="2.94" shape="6424.88,5291.89 6427.45,5290.47"/>
    </edge>
    <edge id=":10173972725_1" function="internal">
        <lane id=":10173972725_1_0" index="0" disallow="tram rail_urban rail rail_electric rail_fast ship" speed="27.78" length="3.02" shape="6426.40,5294.70 6429.03,5293.28"/>
        <lane id=":10173972725_1_1" index="1" disallow="tram rail_urban rail rail_electric rail_fast ship" speed="27.78" length="3.02" shape="6427.92,5297.52 6430.60,5296.07"/>
    </edge>
    <edge id=":10173972755_0" function="internal">
        <lane id=":10173972755_0_0" index="0" disallow="pedestrian bicycle tram rail_urban rail rail_electric rail_fast ship" speed="27.78" length="3.13" shape="6505.05,4730.94 6503.93,4728.02"/>
        <lane id=":10173972755_0_1" index="1" disallow="pedestrian bicycle tram rail_urban rail rail_electric rail_fast ship" speed="27.78" length="3.13" shape="6508.04,4729.79 6506.91,4726.87"/>
    </edge>
    <edge id=":10173972755_2" function="internal">
        <lane id=":10173972755_2_0" index="0" disallow="pedestrian bicycle tram rail_urban rail rail_electric rail_fast ship" speed="25.00" length="3.13" shape="6502.12,4732.07 6500.94,4729.17"/>
    </edge>
    <edge id=":10173972756_0" function="internal">
        <lane id=":10173972756_0_0" index="0" disallow="tram rail_urban rail rail_electric rail_fast ship" speed="3.60" length="4.41" shape="7121.97,5062.56 7123.10,5061.79 7123.94,5061.72 7124.50,5062.35 7124.78,5063.69"/>
    </edge>
    <edge id=":10604503621_0" function="internal">
        <lane id=":10604503621_0_0" index="0" disallow="tram rail_urban rail rail_electric rail_fast ship" speed="6.46" length="9.03" shape="2623.76,5213.63 2624.97,5215.80 2626.57,5217.05 2628.58,5217.38 2630.99,5216.77"/>
    </edge>
    <edge id=":10604503621_1" function="internal">
        <lane id=":10604503621_1_0" index="0" disallow="tram rail_urban rail rail_electric rail_fast ship" speed="3.65" length="4.67" shape="2623.76,5213.63 2623.44,5215.04 2622.84,5215.70 2621.95,5215.61 2620.77,5214.77"/>
    </edge>
    <edge id=":10604503621_2" function="internal">
        <lane id=":10604503621_2_0" index="0" disallow="tram rail_urban rail rail_electric rail_fast ship" speed="6.59" length="9.14" shape="2617.65,5222.20 2619.78,5220.95 2621.01,5219.30 2621.34,5217.24 2620.77,5214.77"/>
    </edge>
    <edge id=":10604503621_3" function="internal">
        <lane id=":10604503621_3_0" index="0" disallow="tram rail_urban rail rail_electric rail_fast ship" speed="27.78" length="14.40" shape="2617.65,5222.20 2630.99,5216.77"/>
    </edge>
    <edge id=":10604503631_0" function="internal">
        <lane id=":10604503631_0_0" index="0" disallow="tram rail_urban rail rail_electric rail_fast ship" speed="22.22" length="14.51" shape="2457.74,5130.42 2455.76,5127.31 2453.81,5124.30 2451.98,5121.23 2450.39,5117.93"/>
    </edge>
    <edge id=":10604503631_1" function="internal">
        <lane id=":10604503631_1_0" index="0" disallow="tram rail_urban rail rail_electric rail_fast ship" speed="7.71" length="5.81" shape="2457.74,5130.42 2456.09,5126.55 2456.15,5124.95"/>
    </edge>
    <edge id=":10604503631_2" function="internal">
        <lane id=":10604503631_2_0" index="0" disallow="tram rail_urban rail rail_electric rail_fast ship" speed="3.65" length="2.34" shape="2457.74,5130.42 2457.80,5128.98 2458.28,5128.22"/>
    </edge>
    <edge id=":10604503631_9" function="internal">
        <lane id=":10604503631_9_0" index="0" disallow="tram rail_urban rail rail_electric rail_fast ship" speed="7.71" length="9.14" shape="2456.15,5124.95 2456.21,5123.29 2458.12,5120.64 2461.80,5118.60"/>
    </edge>
    <edge id=":10604503631_10" function="internal">
        <lane id=":10604503631_10_0" index="0" disallow="tram rail_urban rail rail_electric rail_fast ship" speed="3.65" length="2.34" shape="2458.28,5128.22 2459.17,5128.15 2460.47,5128.75"/>
    </edge>
    <edge id=":10604503631_3" function="internal">
        <lane id=":10604503631_3_0" index="0" disallow="tram rail_urban rail rail_electric rail_fast ship" speed="6.14" length="9.06" shape="2462.93,5121.59 2460.70,5122.83 2459.55,5124.43 2459.47,5126.41 2460.47,5128.75"/>
    </edge>
    <edge id=":10604503631_4" function="internal">
        <lane id=":10604503631_4_0" index="0" disallow="tram rail_urban rail rail_electric rail_fast ship" speed="8.23" length="14.74" shape="2462.93,5121.59 2458.57,5122.72 2455.03,5122.48 2452.30,5120.89 2450.39,5117.93"/>
    </edge>
    <edge id=":10604503631_5" function="internal">
        <lane id=":10604503631_5_0" index="0" disallow="tram rail_urban rail rail_electric rail_fast ship" speed="3.65" length="4.67" shape="2462.93,5121.59 2461.53,5121.27 2460.87,5120.66 2460.96,5119.77 2461.80,5118.60"/>
    </edge>
    <edge id=":10604503631_6" function="internal">
        <lane id=":10604503631_6_0" index="0" disallow="tram rail_urban rail rail_electric rail_fast ship" speed="6.91" length="10.09" shape="2453.15,5116.25 2454.45,5118.22 2456.32,5119.27 2458.77,5119.39 2461.80,5118.60"/>
    </edge>
    <edge id=":10604503631_7" function="internal">
        <lane id=":10604503631_7_0" index="0" disallow="tram rail_urban rail rail_electric rail_fast ship" speed="22.22" length="14.51" shape="2453.15,5116.25 2454.74,5119.55 2456.56,5122.63 2458.50,5125.65 2460.47,5128.75"/>
    </edge>
    <edge id=":10604503631_8" function="internal">
        <lane id=":10604503631_8_0" index="0" disallow="tram rail_urban rail rail_electric rail_fast ship" speed="3.66" length="2.55" shape="2453.15,5116.25 2453.09,5117.70 2452.61,5118.47 2452.43,5118.49"/>
    </edge>
    <edge id=":10604503631_11" function="internal">
        <lane id=":10604503631_11_0" index="0" disallow="tram rail_urban rail rail_electric rail_fast ship" speed="3.66" length="2.18" shape="2452.43,5118.49 2451.71,5118.55 2450.39,5117.93"/>
    </edge>
    <edge id=":1112068874#0-AddedOffRampNode_0" function="internal">
        <lane id=":1112068874#0-AddedOffRampNode_0_0" index="0" disallow="tram rail_urban rail rail_electric rail_fast ship" speed="22.22" length="8.40" shape="6281.99,5437.99 6283.91,5436.37 6284.74,5434.67 6285.57,5432.97 6287.50,5431.36"/>
        <lane id=":1112068874#0-AddedOffRampNode_0_1" index="1" disallow="tram rail_urban rail rail_electric rail_fast ship" speed="22.22" length="8.40" shape="6281.99,5437.99 6289.02,5434.18"/>
    </edge>
    <edge id=":1112068875#1-AddedOnRampNode_0" function="internal">
        <lane id=":1112068875#1-AddedOnRampNode_0_0" index="0" disallow="tram rail_urban rail rail_electric rail_fast ship" speed="22.22" length="8.00" shape="6240.80,5342.27 6233.74,5346.04"/>
    </edge>
    <edge id=":2477438938_0" function="internal">
        <lane id=":2477438938_0_0" index="0" disallow="tram rail_urban rail rail_electric rail_fast ship" speed="3.65" length="4.67" shape="7189.02,6757.43 7188.79,6758.85 7188.23,6759.55 7187.33,6759.52 7186.11,6758.76"/>
    </edge>
    <edge id=":2477438947_0" function="internal">
        <lane id=":2477438947_0_0" index="0" disallow="tram rail_urban rail rail_electric rail_fast ship" speed="6.50" length="9.05" shape="5492.25,4811.49 5491.00,4809.34 5489.37,4808.11 5487.36,4807.80 5484.96,4808.41"/>
    </edge>
    <edge id=":2477438947_1" function="internal">
        <lane id=":2477438947_1_0" index="0" disallow="tram rail_urban rail rail_electric rail_fast ship" speed="22.22" length="14.47" shape="5492.25,4811.49 5486.93,4798.04"/>
    </edge>
    <edge id=":2477438947_2" function="internal">
        <lane id=":2477438947_2_0" index="0" disallow="tram rail_urban rail rail_electric rail_fast ship" speed="7.98" length="6.01" shape="5492.25,4811.49 5491.32,4807.70 5491.65,4805.62"/>
    </edge>
    <edge id=":2477438947_3" function="internal">
        <lane id=":2477438947_3_0" index="0" disallow="tram rail_urban rail rail_electric rail_fast ship" speed="3.65" length="2.34" shape="5492.25,4811.49 5492.54,4810.08 5493.14,4809.41"/>
    </edge>
    <edge id=":2477438947_16" function="internal">
        <lane id=":2477438947_16_0" index="0" disallow="tram rail_urban rail rail_electric rail_fast ship" speed="7.98" length="8.23" shape="5491.65,4805.62 5491.83,4804.53 5493.79,4801.98 5497.19,4800.06"/>
    </edge>
    <edge id=":2477438947_17" function="internal">
        <lane id=":2477438947_17_0" index="0" disallow="tram rail_urban rail rail_electric rail_fast ship" speed="3.65" length="2.34" shape="5493.14,4809.41 5494.03,4809.48 5495.22,4810.30"/>
    </edge>
    <edge id=":2477438947_4" function="internal">
        <lane id=":2477438947_4_0" index="0" disallow="tram rail_urban rail rail_electric rail_fast ship" speed="6.48" length="9.03" shape="5498.35,4803.05 5496.19,4804.26 5494.95,4805.88 5494.63,4807.89 5495.22,4810.30"/>
    </edge>
    <edge id=":2477438947_5" function="internal">
        <lane id=":2477438947_5_0" index="0" disallow="tram rail_urban rail rail_electric rail_fast ship" speed="22.22" length="14.43" shape="5498.35,4803.05 5484.96,4808.41"/>
    </edge>
    <edge id=":2477438947_6" function="internal">
        <lane id=":2477438947_6_0" index="0" disallow="tram rail_urban rail rail_electric rail_fast ship" speed="8.01" length="14.23" shape="5498.35,4803.05 5494.55,4803.94 5491.38,4803.40 5488.84,4801.43 5486.93,4798.04"/>
    </edge>
    <edge id=":2477438947_7" function="internal">
        <lane id=":2477438947_7_0" index="0" disallow="tram rail_urban rail rail_electric rail_fast ship" speed="3.65" length="4.67" shape="5498.35,4803.05 5496.94,4802.74 5496.28,4802.14 5496.36,4801.24 5497.19,4800.06"/>
    </edge>
    <edge id=":2477438947_8" function="internal">
        <lane id=":2477438947_8_0" index="0" disallow="tram rail_urban rail rail_electric rail_fast ship" speed="6.51" length="9.06" shape="5489.92,4796.88 5491.13,4799.04 5492.75,4800.29 5494.77,4800.63 5497.19,4800.06"/>
    </edge>
    <edge id=":2477438947_9" function="internal">
        <lane id=":2477438947_9_0" index="0" disallow="tram rail_urban rail rail_electric rail_fast ship" speed="22.22" length="14.42" shape="5489.92,4796.88 5495.22,4810.30"/>
    </edge>
    <edge id=":2477438947_10" function="internal">
        <lane id=":2477438947_10_0" index="0" disallow="tram rail_urban rail rail_electric rail_fast ship" speed="8.08" length="5.87" shape="5489.92,4796.88 5490.79,4800.67 5490.47,4802.63"/>
    </edge>
    <edge id=":2477438947_11" function="internal">
        <lane id=":2477438947_11_0" index="0" disallow="tram rail_urban rail rail_electric rail_fast ship" speed="3.65" length="2.34" shape="5489.92,4796.88 5489.60,4798.29 5489.00,4798.95"/>
    </edge>
    <edge id=":2477438947_18" function="internal">
        <lane id=":2477438947_18_0" index="0" disallow="tram rail_urban rail rail_electric rail_fast ship" speed="8.08" length="8.38" shape="5490.47,4802.63 5490.26,4803.86 5488.31,4806.44 5484.96,4808.41"/>
    </edge>
    <edge id=":2477438947_19" function="internal">
        <lane id=":2477438947_19_0" index="0" disallow="tram rail_urban rail rail_electric rail_fast ship" speed="3.65" length="2.34" shape="5489.00,4798.95 5488.11,4798.87 5486.93,4798.04"/>
    </edge>
    <edge id=":2477438947_12" function="internal">
        <lane id=":2477438947_12_0" index="0" disallow="tram rail_urban rail rail_electric rail_fast ship" speed="6.60" length="9.16" shape="5483.74,4805.45 5485.90,4804.18 5487.15,4802.52 5487.49,4800.47 5486.93,4798.04"/>
    </edge>
    <edge id=":2477438947_13" function="internal">
        <lane id=":2477438947_13_0" index="0" disallow="tram rail_urban rail rail_electric rail_fast ship" speed="22.22" length="14.49" shape="5483.74,4805.45 5497.19,4800.06"/>
    </edge>
    <edge id=":2477438947_14" function="internal">
        <lane id=":2477438947_14_0" index="0" disallow="tram rail_urban rail rail_electric rail_fast ship" speed="7.99" length="14.23" shape="5483.74,4805.45 5487.52,4804.49 5490.69,4804.98 5493.26,4806.92 5495.22,4810.30"/>
    </edge>
    <edge id=":2477438947_15" function="internal">
        <lane id=":2477438947_15_0" index="0" disallow="tram rail_urban rail rail_electric rail_fast ship" speed="3.65" length="4.67" shape="5483.74,4805.45 5485.15,4805.74 5485.83,4806.32 5485.76,4807.22 5484.96,4808.41"/>
    </edge>
    <edge id=":402748736#2-AddedOffRampNode_0" function="internal">
        <lane id=":402748736#2-AddedOffRampNode_0_0" index="0" disallow="pedestrian bicycle tram rail_urban rail rail_electric rail_fast ship" speed="27.78" length="8.92" shape="6675.07,5043.35 6677.20,5045.27 6679.76,5045.41 6682.32,5045.54 6684.45,5047.46"/>
        <lane id=":402748736#2-AddedOffRampNode_0_1" index="1" disallow="pedestrian bicycle tram rail_urban rail rail_electric rail_fast ship" speed="27.78" length="8.92" shape="6675.07,5043.35 6676.65,5045.30 6678.34,5046.15 6680.03,5047.00 6681.62,5048.95"/>
        <lane id=":402748736#2-AddedOffRampNode_0_2" index="2" disallow="pedestrian bicycle tram rail_urban rail rail_electric rail_fast ship" speed="27.78" length="8.92" shape="6675.07,5043.35 6678.78,5050.43"/>
        <lane id=":402748736#2-AddedOffRampNode_0_3" index="3" disallow="pedestrian bicycle tram rail_urban rail rail_electric rail_fast ship" speed="27.78" length="8.92" shape="6672.23,5044.84 6675.95,5051.92"/>
    </edge>
    <edge id=":402748737#1-AddedOnRampNode_0" function="internal">
        <lane id=":402748737#1-AddedOnRampNode_0_0" index="0" disallow="pedestrian bicycle tram rail_urban rail rail_electric rail_fast ship" speed="27.78" length="8.00" shape="6469.98,4639.81 6467.11,4632.35"/>
        <lane id=":402748737#1-AddedOnRampNode_0_1" index="1" disallow="pedestrian bicycle tram rail_urban rail rail_electric rail_fast ship" speed="27.78" length="8.00" shape="6472.97,4638.66 6470.09,4631.20"/>
    </edge>
    <edge id=":6313645801_0" function="internal">
        <lane id=":6313645801_0_0" index="0" disallow="tram rail_urban rail rail_electric rail_fast ship" speed="3.65" length="4.67" shape="3708.71,7321.82 3709.42,7323.08 3709.41,7323.97 3708.69,7324.50 3707.26,7324.67"/>
    </edge>
    <edge id=":6313645881_0" function="internal">
        <lane id=":6313645881_0_0" index="0" disallow="tram rail_urban rail rail_electric rail_fast ship" speed="3.65" length="4.67" shape="5821.71,5620.06 5821.42,5621.47 5820.83,5622.15 5819.94,5622.07 5818.75,5621.26"/>
    </edge>
    <edge id=":6313645887_0" function="internal">
        <lane id=":6313645887_0_0" index="0" disallow="tram rail_urban rail rail_electric rail_fast ship" speed="6.45" length="9.03" shape="5442.32,4682.79 5441.11,4680.63 5439.50,4679.39 5437.49,4679.08 5435.08,4679.70"/>
    </edge>
    <edge id=":6313645887_1" function="internal">
        <lane id=":6313645887_1_0" index="0" disallow="tram rail_urban rail rail_electric rail_fast ship" speed="22.22" length="14.44" shape="5442.32,4682.79 5436.98,4669.39"/>
    </edge>
    <edge id=":6313645887_2" function="internal">
        <lane id=":6313645887_2_0" index="0" disallow="tram rail_urban rail rail_electric rail_fast ship" speed="8.07" length="14.27" shape="5442.32,4682.79 5441.43,4678.98 5441.96,4675.78 5443.89,4673.20 5447.25,4671.24"/>
    </edge>
    <edge id=":6313645887_3" function="internal">
        <lane id=":6313645887_3_0" index="0" disallow="tram rail_urban rail rail_electric rail_fast ship" speed="3.65" length="4.67" shape="5442.32,4682.79 5442.64,4681.39 5443.24,4680.73 5444.13,4680.81 5445.31,4681.64"/>
    </edge>
    <edge id=":6313645887_4" function="internal">
        <lane id=":6313645887_4_0" index="0" disallow="tram rail_urban rail rail_electric rail_fast ship" speed="6.59" length="9.17" shape="5448.45,4674.21 5446.30,4675.46 5445.06,4677.12 5444.73,4679.18 5445.31,4681.64"/>
    </edge>
    <edge id=":6313645887_5" function="internal">
        <lane id=":6313645887_5_0" index="0" disallow="tram rail_urban rail rail_electric rail_fast ship" speed="22.22" length="14.45" shape="5448.45,4674.21 5435.08,4679.70"/>
    </edge>
    <edge id=":6313645887_6" function="internal">
        <lane id=":6313645887_6_0" index="0" disallow="tram rail_urban rail rail_electric rail_fast ship" speed="8.01" length="5.88" shape="5448.45,4674.21 5444.68,4675.14 5442.71,4674.84"/>
    </edge>
    <edge id=":6313645887_7" function="internal">
        <lane id=":6313645887_7_0" index="0" disallow="tram rail_urban rail rail_electric rail_fast ship" speed="3.65" length="2.34" shape="5448.45,4674.21 5447.04,4673.92 5446.36,4673.33"/>
    </edge>
    <edge id=":6313645887_16" function="internal">
        <lane id=":6313645887_16_0" index="0" disallow="tram rail_urban rail rail_electric rail_fast ship" speed="8.01" length="8.30" shape="5442.71,4674.84 5441.51,4674.65 5438.95,4672.73 5436.98,4669.39"/>
    </edge>
    <edge id=":6313645887_17" function="internal">
        <lane id=":6313645887_17_0" index="0" disallow="tram rail_urban rail rail_electric rail_fast ship" speed="3.65" length="2.34" shape="5446.36,4673.33 5446.43,4672.43 5447.25,4671.24"/>
    </edge>
    <edge id=":6313645887_8" function="internal">
        <lane id=":6313645887_8_0" index="0" disallow="tram rail_urban rail rail_electric rail_fast ship" speed="6.52" length="9.03" shape="5439.94,4668.17 5441.19,4670.30 5442.83,4671.53 5444.85,4671.84 5447.25,4671.24"/>
    </edge>
    <edge id=":6313645887_9" function="internal">
        <lane id=":6313645887_9_0" index="0" disallow="tram rail_urban rail rail_electric rail_fast ship" speed="22.22" length="14.50" shape="5439.94,4668.17 5445.31,4681.64"/>
    </edge>
    <edge id=":6313645887_10" function="internal">
        <lane id=":6313645887_10_0" index="0" disallow="tram rail_urban rail rail_electric rail_fast ship" speed="8.03" length="14.25" shape="5439.94,4668.17 5440.89,4671.94 5440.39,4675.11 5438.46,4677.70 5435.08,4679.70"/>
    </edge>
    <edge id=":6313645887_11" function="internal">
        <lane id=":6313645887_11_0" index="0" disallow="tram rail_urban rail rail_electric rail_fast ship" speed="3.65" length="4.67" shape="5439.94,4668.17 5439.65,4669.58 5439.07,4670.26 5438.17,4670.19 5436.98,4669.39"/>
    </edge>
    <edge id=":6313645887_12" function="internal">
        <lane id=":6313645887_12_0" index="0" disallow="tram rail_urban rail rail_electric rail_fast ship" speed="6.55" length="9.11" shape="5433.85,4676.75 5436.02,4675.47 5437.26,4673.81 5437.58,4671.79 5436.98,4669.39"/>
    </edge>
    <edge id=":6313645887_13" function="internal">
        <lane id=":6313645887_13_0" index="0" disallow="tram rail_urban rail rail_electric rail_fast ship" speed="22.22" length="14.48" shape="5433.85,4676.75 5447.25,4671.24"/>
    </edge>
    <edge id=":6313645887_14" function="internal">
        <lane id=":6313645887_14_0" index="0" disallow="tram rail_urban rail rail_electric rail_fast ship" speed="7.96" length="5.98" shape="5433.85,4676.75 5437.66,4675.77 5439.69,4676.08"/>
    </edge>
    <edge id=":6313645887_15" function="internal">
        <lane id=":6313645887_15_0" index="0" disallow="tram rail_urban rail rail_electric rail_fast ship" speed="3.65" length="2.34" shape="5433.85,4676.75 5435.27,4677.03 5435.94,4677.61"/>
    </edge>
    <edge id=":6313645887_18" function="internal">