<?xml version="1.0" encoding="UTF-8"?>

<!-- generated on 2023-03-03 15:01:13 by Eclipse SUMO netconvert Version 1.10.0
<configuration xmlns:xsi="http://www.w3.org/2001/XMLSchema-instance" xsi:noNamespaceSchemaLocation="http://sumo.dlr.de/xsd/netconvertConfiguration.xsd">

    <input>
        <type-files value="D:\veins\Eclipse\Sumo\data\typemap\osmNetconvert.typ.xml"/>
        <osm-files value="osm_bbox.osm.xml"/>
    </input>

    <output>
        <output-file value="osm.net.xml"/>
        <output.street-names value="true"/>
        <output.original-names value="true"/>
    </output>

    <projection>
        <proj.utm value="true"/>
    </projection>

    <processing>
        <geometry.remove value="true"/>
        <roundabouts.guess value="true"/>
    </processing>

    <tls_building>
        <tls.discard-simple value="true"/>
        <tls.join value="true"/>
        <tls.guess-signals value="true"/>
        <tls.default-type value="actuated"/>
    </tls_building>

    <ramp_guessing>
        <ramps.guess value="true"/>
    </ramp_guessing>

    <edge_removal>
        <keep-edges.by-vclass value="passenger"/>
    </edge_removal>

    <junctions>
        <junctions.join value="true"/>
        <junctions.corner-detail value="5"/>
    </junctions>

    <report>
        <verbose value="true"/>
        <aggregate-warnings value="5"/>
    </report>

</configuration>
-->

<net version="1.9" junctionCornerDetail="5" limitTurnSpeed="5.50" xmlns:xsi="http://www.w3.org/2001/XMLSchema-instance" xsi:noNamespaceSchemaLocation="http://sumo.dlr.de/xsd/net_file.xsd">

    <location netOffset="-316699.65,-5066867.22" convBoundary="0.00,0.00,5006.23,3491.34" origBoundary="126.528524,45.722453,126.754001,45.871824" projParameter="+proj=utm +zone=52 +ellps=WGS84 +datum=WGS84 +units=m +no_defs"/>

    <type id="highway.bridleway" priority="1" numLanes="1" speed="2.78" allow="pedestrian" oneway="1" width="2.00"/>
    <type id="highway.bus_guideway" priority="1" numLanes="1" speed="27.78" allow="bus" oneway="1"/>
    <type id="highway.cycleway" priority="1" numLanes="1" speed="8.33" allow="bicycle" oneway="0" width="1.00"/>
    <type id="highway.footway" priority="1" numLanes="1" speed="2.78" allow="pedestrian" oneway="1" width="2.00"/>
    <type id="highway.ford" priority="1" numLanes="1" speed="2.78" allow="army" oneway="0"/>
    <type id="highway.living_street" priority="2" numLanes="1" speed="2.78" disallow="tram rail_urban rail rail_electric rail_fast ship" oneway="0"/>
    <type id="highway.motorway" priority="14" numLanes="2" speed="39.44" allow="private emergency authority army vip passenger hov taxi bus coach delivery truck trailer motorcycle evehicle custom1 custom2" oneway="1"/>
    <type id="highway.motorway_link" priority="9" numLanes="1" speed="22.22" allow="private emergency authority army vip passenger hov taxi bus coach delivery truck trailer motorcycle evehicle custom1 custom2" oneway="1"/>
    <type id="highway.path" priority="1" numLanes="1" speed="2.78" allow="pedestrian bicycle" oneway="0" width="2.00"/>
    <type id="highway.pedestrian" priority="1" numLanes="1" speed="2.78" allow="pedestrian" oneway="1" width="2.00"/>
    <type id="highway.primary" priority="12" numLanes="2" speed="27.78" disallow="tram rail_urban rail rail_electric rail_fast ship" oneway="0"/>
    <type id="highway.primary_link" priority="7" numLanes="1" speed="22.22" disallow="tram rail_urban rail rail_electric rail_fast ship" oneway="0"/>
    <type id="highway.raceway" priority="15" numLanes="2" speed="83.33" allow="vip" oneway="0"/>
    <type id="highway.residential" priority="3" numLanes="1" speed="13.89" disallow="tram rail_urban rail rail_electric rail_fast ship" oneway="0"/>
    <type id="highway.secondary" priority="11" numLanes="1" speed="27.78" disallow="tram rail_urban rail rail_electric rail_fast ship" oneway="0"/>
    <type id="highway.secondary_link" priority="6" numLanes="1" speed="22.22" disallow="tram rail_urban rail rail_electric rail_fast ship" oneway="0"/>
    <type id="highway.service" priority="1" numLanes="1" speed="5.56" allow="pedestrian delivery bicycle" oneway="0"/>
    <type id="highway.stairs" priority="1" numLanes="1" speed="1.39" allow="pedestrian" oneway="1" width="2.00"/>
    <type id="highway.step" priority="1" numLanes="1" speed="1.39" allow="pedestrian" oneway="1" width="2.00"/>
    <type id="highway.steps" priority="1" numLanes="1" speed="1.39" allow="pedestrian" oneway="1" width="2.00"/>
    <type id="highway.tertiary" priority="10" numLanes="1" speed="22.22" disallow="tram rail_urban rail rail_electric rail_fast ship" oneway="0"/>
    <type id="highway.tertiary_link" priority="5" numLanes="1" speed="22.22" disallow="tram rail_urban rail rail_electric rail_fast ship" oneway="0"/>
    <type id="highway.track" priority="1" numLanes="1" speed="5.56" allow="pedestrian motorcycle moped bicycle" oneway="0"/>
    <type id="highway.trunk" priority="13" numLanes="2" speed="27.78" disallow="pedestrian bicycle tram rail_urban rail rail_electric rail_fast ship" oneway="0"/>
    <type id="highway.trunk_link" priority="8" numLanes="1" speed="22.22" disallow="pedestrian bicycle tram rail_urban rail rail_electric rail_fast ship" oneway="0"/>
    <type id="highway.unclassified" priority="4" numLanes="1" speed="13.89" disallow="tram rail_urban rail rail_electric rail_fast ship" oneway="0"/>
    <type id="highway.unsurfaced" priority="1" numLanes="1" speed="8.33" disallow="tram rail_urban rail rail_electric rail_fast ship" oneway="0"/>
    <type id="railway.highspeed" priority="21" numLanes="1" speed="69.44" allow="rail_fast" oneway="1"/>
    <type id="railway.light_rail" priority="19" numLanes="1" speed="27.78" allow="rail_urban" oneway="1"/>
    <type id="railway.preserved" priority="16" numLanes="1" speed="27.78" allow="rail" oneway="1"/>
    <type id="railway.rail" priority="20" numLanes="1" speed="44.44" allow="rail" oneway="1"/>
    <type id="railway.subway" priority="18" numLanes="1" speed="27.78" allow="rail_urban" oneway="1"/>
    <type id="railway.tram" priority="17" numLanes="1" speed="13.89" allow="tram" oneway="1"/>

    <edge id=":101493118#1-AddedOnRampNode_0" function="internal">
        <lane id=":101493118#1-AddedOnRampNode_0_0" index="0" disallow="tram rail_urban rail rail_electric rail_fast ship" speed="27.78" length="8.00" shape="2368.05,2210.41 2376.03,2210.99"/>
        <lane id=":101493118#1-AddedOnRampNode_0_1" index="1" disallow="tram rail_urban rail rail_electric rail_fast ship" speed="27.78" length="8.00" shape="2367.82,2213.60 2375.80,2214.18"/>
    </edge>
    <edge id=":1056671454#0-AddedOffRampNode_0" function="internal">
        <lane id=":1056671454#0-AddedOffRampNode_0_0" index="0" disallow="tram rail_urban rail rail_electric rail_fast ship" speed="27.78" length="8.27" shape="1524.91,2107.41 1522.71,2106.20 1520.82,2106.06 1518.94,2105.91 1516.73,2104.70"/>
        <lane id=":1056671454#0-AddedOffRampNode_0_1" index="1" disallow="tram rail_urban rail rail_electric rail_fast ship" speed="27.78" length="8.27" shape="1524.91,2107.41 1518.79,2102.26"/>
        <lane id=":1056671454#0-AddedOffRampNode_0_2" index="2" disallow="tram rail_urban rail rail_electric rail_fast ship" speed="27.78" length="8.27" shape="1526.97,2104.96 1520.85,2099.81"/>
    </edge>
    <edge id=":10599521296_0" function="internal">
        <lane id=":10599521296_0_0" index="0" disallow="tram rail_urban rail rail_electric rail_fast ship" speed="6.75" length="8.95" shape="1410.93,1966.75 1410.45,1967.82 1410.76,1969.52 1411.84,1971.84 1413.71,1974.78"/>
    </edge>
    <edge id=":10599521296_1" function="internal">
        <lane id=":10599521296_1_0" index="0" disallow="tram rail_urban rail rail_electric rail_fast ship" speed="14.09" length="4.09" shape="1410.93,1966.75 1409.97,1967.50 1409.27,1967.99 1408.68,1968.57 1408.06,1969.58"/>
    </edge>
    <edge id=":10599521296_2" function="internal">
        <lane id=":10599521296_2_0" index="0" disallow="tram rail_urban rail rail_electric rail_fast ship" speed="3.65" length="4.67" shape="1410.93,1966.75 1409.50,1966.94 1408.67,1966.60 1408.45,1965.74 1408.82,1964.35"/>
    </edge>
    <edge id=":10599521296_3" function="internal">
        <lane id=":10599521296_3_0" index="0" disallow="tram rail_urban rail rail_electric rail_fast ship" speed="4.99" length="6.37" shape="1405.81,1959.12 1406.75,1961.74 1407.57,1963.48 1408.26,1964.35 1408.82,1964.35"/>
    </edge>
    <edge id=":10599521296_4" function="internal">
        <lane id=":10599521296_4_0" index="0" disallow="tram rail_urban rail rail_electric rail_fast ship" speed="27.78" length="18.11" shape="1405.81,1959.12 1407.50,1964.07 1408.92,1967.37 1410.75,1970.47 1413.71,1974.78"/>
        <lane id=":10599521296_4_1" index="1" disallow="tram rail_urban rail rail_electric rail_fast ship" speed="27.78" length="18.11" shape="1402.77,1960.13 1404.55,1965.33 1406.04,1968.81 1407.97,1972.07 1411.08,1976.61"/>
    </edge>
    <edge id=":10599521296_6" function="internal">
        <lane id=":10599521296_6_0" index="0" disallow="tram rail_urban rail rail_electric rail_fast ship" speed="10.82" length="10.83" shape="1402.77,1960.13 1408.06,1969.58"/>
    </edge>
    <edge id=":10599521296_7" function="internal">
        <lane id=":10599521296_7_0" index="0" disallow="tram rail_urban rail rail_electric rail_fast ship" speed="15.99" length="5.29" shape="1405.21,1968.13 1406.00,1966.80 1406.72,1966.01 1407.59,1965.34 1408.82,1964.35"/>
    </edge>
    <edge id=":10599521296_8" function="internal">
        <lane id=":10599521296_8_0" index="0" disallow="tram rail_urban rail rail_electric rail_fast ship" speed="6.01" length="10.37" shape="1405.21,1968.13 1406.24,1968.96 1408.10,1971.73 1409.99,1974.81 1411.08,1976.61"/>
    </edge>
    <edge id=":10599521296_9" function="internal">
        <lane id=":10599521296_9_0" index="0" disallow="tram rail_urban rail rail_electric rail_fast ship" speed="3.65" length="4.67" shape="1405.21,1968.13 1406.47,1967.42 1407.36,1967.43 1407.90,1968.15 1408.06,1969.58"/>
    </edge>
    <edge id=":10599521304_0" function="internal">
        <lane id=":10599521304_0_0" index="0" disallow="pedestrian bicycle tram rail_urban rail rail_electric rail_fast ship" speed="7.46" length="3.24" shape="1374.49,2016.88 1374.36,2015.92 1374.29,2015.23 1374.38,2014.59 1374.78,2013.74"/>
        <lane id=":10599521304_0_1" index="1" disallow="pedestrian bicycle tram rail_urban rail rail_electric rail_fast ship" speed="4.94" length="1.27" shape="1377.68,2016.59 1377.56,2015.33"/>
    </edge>
    <edge id=":10599521304_2" function="internal">
        <lane id=":10599521304_2_0" index="0" disallow="pedestrian bicycle tram rail_urban rail rail_electric rail_fast ship" speed="27.78" length="3.55" shape="1380.86,2016.30 1380.77,2015.17 1380.73,2014.39 1380.76,2013.62 1380.85,2012.49"/>
        <lane id=":10599521304_2_1" index="1" disallow="pedestrian bicycle tram rail_urban rail rail_electric rail_fast ship" speed="27.78" length="3.55" shape="1384.05,2016.02 1383.97,2015.05 1383.94,2014.38 1383.96,2013.72 1384.04,2012.75"/>
    </edge>
    <edge id=":10599559208_0" function="internal">
        <lane id=":10599559208_0_0" index="0" disallow="pedestrian bicycle tram rail_urban rail rail_electric rail_fast ship" speed="5.47" length="10.53" shape="1422.50,2020.46 1419.95,2018.03 1418.26,2017.59 1417.45,2019.13 1417.51,2022.65"/>
        <lane id=":10599559208_0_1" index="1" disallow="pedestrian bicycle tram rail_urban rail rail_electric rail_fast ship" speed="7.65" length="22.33" shape="1424.91,2018.35 1419.49,2013.21 1415.92,2012.26 1414.20,2015.53 1414.33,2023.00"/>
    </edge>
    <edge id=":10599559208_2" function="internal">
        <lane id=":10599559208_2_0" index="0" disallow="tram rail_urban rail rail_electric rail_fast ship" speed="27.78" length="27.44" shape="1424.91,2018.35 1419.85,2013.34 1414.75,2009.00 1409.98,2004.43 1405.87,1998.75"/>
    </edge>
    <edge id=":10599559208_3" function="internal">
        <lane id=":10599559208_3_0" index="0" disallow="pedestrian bicycle tram rail_urban rail rail_electric rail_fast ship" speed="27.78" length="27.75" shape="1416.45,1995.18 1416.32,2002.29 1416.44,2008.93 1416.84,2015.57 1417.51,2022.65"/>
        <lane id=":10599559208_3_1" index="1" disallow="pedestrian bicycle tram rail_urban rail rail_electric rail_fast ship" speed="27.78" length="27.75" shape="1413.25,1995.07 1413.12,2002.25 1413.25,2009.05 1413.65,2015.85 1414.33,2023.00"/>
    </edge>
    <edge id=":10599559208_5" function="internal">
        <lane id=":10599559208_5_0" index="0" disallow="pedestrian bicycle tram rail_urban rail rail_electric rail_fast ship" speed="5.47" length="10.81" shape="1413.25,1995.07 1412.82,1998.80 1411.85,2000.30 1410.36,1999.57 1408.33,1996.59"/>
    </edge>
    <edge id=":10599559209_0" function="internal">
        <lane id=":10599559209_0_0" index="0" disallow="tram rail_urban rail rail_electric rail_fast ship" speed="25.00" length="3.69" shape="1444.46,2043.89 1441.76,2041.38"/>
    </edge>
    <edge id=":10599559209_1" function="internal">
        <lane id=":10599559209_1_0" index="0" disallow="tram rail_urban rail rail_electric rail_fast ship" speed="27.78" length="3.28" shape="1446.52,2041.44 1443.90,2039.24"/>
        <lane id=":10599559209_1_1" index="1" disallow="tram rail_urban rail rail_electric rail_fast ship" speed="27.78" length="3.28" shape="1448.58,2038.99 1446.17,2036.97"/>
    </edge>
    <edge id=":10599559215_0" function="internal">
        <lane id=":10599559215_0_0" index="0" disallow="pedestrian bicycle tram rail_urban rail rail_electric rail_fast ship" speed="27.78" length="3.21" shape="1421.83,2057.55 1422.23,2060.73"/>
        <lane id=":10599559215_0_1" index="1" disallow="pedestrian bicycle tram rail_urban rail rail_electric rail_fast ship" speed="27.78" length="3.21" shape="1418.66,2057.94 1419.05,2061.13"/>
    </edge>
    <edge id=":10599559215_2" function="internal">
        <lane id=":10599559215_2_0" index="0" disallow="pedestrian bicycle tram rail_urban rail rail_electric rail_fast ship" speed="25.00" length="3.22" shape="1424.78,2057.18 1425.02,2058.11 1425.17,2058.75 1425.28,2059.39 1425.41,2060.34"/>
    </edge>
    <edge id=":1171848046_0" function="internal">
        <lane id=":1171848046_0_0" index="0" disallow="tram rail_urban rail rail_electric rail_fast ship" speed="27.78" length="11.09" shape="1414.99,1976.62 1416.92,1979.19 1418.46,1980.77 1420.17,1982.20 1422.65,1984.29"/>
        <lane id=":1171848046_0_1" index="1" disallow="tram rail_urban rail rail_electric rail_fast ship" speed="27.78" length="11.09" shape="1412.58,1978.77 1414.59,1981.42 1416.18,1983.06 1417.97,1984.53 1420.53,1986.68"/>
    </edge>
    <edge id=":1171848046_2" function="internal">
        <lane id=":1171848046_2_0" index="0" disallow="pedestrian bicycle tram rail_urban rail rail_electric rail_fast ship" speed="12.64" length="10.75" shape="1412.58,1978.77 1414.51,1981.33 1415.82,1983.20 1416.55,1985.24 1416.69,1988.33"/>
    </edge>
    <edge id=":1171848046_3" function="internal">
        <lane id=":1171848046_3_0" index="0" disallow="pedestrian bicycle tram rail_urban rail rail_electric rail_fast ship" speed="27.78" length="11.07" shape="1414.71,1976.86 1416.92,1979.22 1418.52,1980.74 1420.20,1982.18 1422.65,1984.29"/>
        <lane id=":1171848046_3_1" index="1" disallow="pedestrian bicycle tram rail_urban rail rail_electric rail_fast ship" speed="27.78" length="11.07" shape="1412.33,1979.00 1414.61,1981.43 1416.26,1983.01 1418.00,1984.50 1420.53,1986.68"/>
    </edge>
    <edge id=":1171848046_5" function="internal">
        <lane id=":1171848046_5_0" index="0" disallow="pedestrian bicycle tram rail_urban rail rail_electric rail_fast ship" speed="10.49" length="9.75" shape="1412.33,1979.00 1413.85,1981.24 1414.14,1983.16 1413.82,1985.30 1413.50,1988.22"/>
    </edge>
    <edge id=":1171848056_0" function="internal">
        <lane id=":1171848056_0_0" index="0" disallow="tram rail_urban rail rail_electric rail_fast ship" speed="22.22" length="22.68" shape="1633.91,2172.48 1631.31,2149.94"/>
    </edge>
    <edge id=":1171848056_1" function="internal">
        <lane id=":1171848056_1_0" index="0" disallow="tram rail_urban rail rail_electric rail_fast ship" speed="6.52" length="4.26" shape="1633.91,2172.48 1633.81,2168.36 1633.89,2168.24"/>
    </edge>
    <edge id=":1171848056_2" function="internal">
        <lane id=":1171848056_2_0" index="0" disallow="tram rail_urban rail rail_electric rail_fast ship" speed="3.65" length="2.03" shape="1633.91,2172.48 1634.51,2171.17 1634.98,2170.83"/>
    </edge>
    <edge id=":1171848056_10" function="internal">
        <lane id=":1171848056_10_0" index="0" disallow="tram rail_urban rail rail_electric rail_fast ship" speed="6.52" length="9.88" shape="1633.89,2168.24 1635.17,2166.35 1637.98,2166.42 1642.25,2168.60"/>
    </edge>
    <edge id=":1171848056_11" function="internal">
        <lane id=":1171848056_11_0" index="0" disallow="tram rail_urban rail rail_electric rail_fast ship" speed="3.65" length="2.65" shape="1634.98,2170.83 1635.23,2170.65 1636.09,2170.91 1637.07,2171.97"/>
    </edge>
    <edge id=":1171848056_3" function="internal">
        <lane id=":1171848056_3_0" index="0" disallow="tram rail_urban rail rail_electric rail_fast ship" speed="12.88" length="19.47" shape="1634.50,2149.71 1635.38,2154.69 1637.25,2159.05 1640.12,2162.79 1643.98,2165.91"/>
    </edge>
    <edge id=":1171848056_4" function="internal">
        <lane id=":1171848056_4_0" index="0" disallow="tram rail_urban rail rail_electric rail_fast ship" speed="22.22" length="22.41" shape="1634.50,2149.71 1637.07,2171.97"/>
    </edge>
    <edge id=":1171848056_5" function="internal">
        <lane id=":1171848056_5_0" index="0" disallow="tram rail_urban rail rail_electric rail_fast ship" speed="3.65" length="4.67" shape="1634.50,2149.71 1633.79,2150.97 1633.02,2151.42 1632.19,2151.08 1631.31,2149.94"/>
    </edge>
    <edge id=":1171848056_6" function="internal">
        <lane id=":1171848056_6_0" index="0" disallow="tram rail_urban rail rail_electric rail_fast ship" speed="5.49" length="9.65" shape="1625.89,2152.77 1628.47,2154.41 1630.23,2154.49 1631.18,2153.00 1631.31,2149.94"/>
    </edge>
    <edge id=":1171848056_7" function="internal">
        <lane id=":1171848056_7_0" index="0" disallow="tram rail_urban rail rail_electric rail_fast ship" speed="27.78" length="22.55" shape="1625.89,2152.77 1630.81,2156.72 1634.69,2159.67 1638.70,2162.45 1643.98,2165.91"/>
        <lane id=":1171848056_7_1" index="1" disallow="tram rail_urban rail rail_electric rail_fast ship" speed="27.78" length="22.55" shape="1623.87,2155.25 1628.83,2159.23 1632.82,2162.26 1636.92,2165.11 1642.25,2168.60"/>
    </edge>
    <edge id=":1171848056_9" function="internal">
        <lane id=":1171848056_9_0" index="0" disallow="tram rail_urban rail rail_electric rail_fast ship" speed="16.08" length="9.87" shape="1623.87,2155.25 1629.10,2159.83 1631.08,2161.97"/>
    </edge>
    <edge id=":1171848056_12" function="internal">
        <lane id=":1171848056_12_0" index="0" disallow="tram rail_urban rail rail_electric rail_fast ship" speed="16.08" length="11.81" shape="1631.08,2161.97 1633.08,2164.13 1635.76,2168.16 1637.07,2171.97"/>
    </edge>
    <edge id=":1171848143_0" function="internal">
        <lane id=":1171848143_0_0" index="0" disallow="pedestrian bicycle tram rail_urban rail rail_electric rail_fast ship" speed="5.92" length="12.11" shape="1392.22,1986.24 1389.43,1988.47 1387.54,1988.53 1386.55,1986.41 1386.47,1982.11"/>
    </edge>
    <edge id=":1171848143_1" function="internal">
        <lane id=":1171848143_1_0" index="0" disallow="tram rail_urban rail rail_electric rail_fast ship" speed="3.65" length="4.67" shape="1392.22,1986.24 1390.81,1986.54 1389.96,1986.26 1389.67,1985.42 1389.93,1984.00"/>
    </edge>
    <edge id=":1171848143_2" function="internal">
        <lane id=":1171848143_2_0" index="0" disallow="pedestrian bicycle tram rail_urban rail rail_electric rail_fast ship" speed="27.78" length="12.94" shape="1382.32,1994.75 1383.28,1981.85"/>
        <lane id=":1171848143_2_1" index="1" disallow="pedestrian bicycle tram rail_urban rail rail_electric rail_fast ship" speed="27.78" length="12.94" shape="1385.51,1995.01 1386.47,1982.11"/>
    </edge>
    <edge id=":1171848143_4" function="internal">
        <lane id=":1171848143_4_0" index="0" disallow="pedestrian bicycle tram rail_urban rail rail_electric rail_fast ship" speed="12.70" length="12.23" shape="1385.51,1995.01 1385.91,1991.30 1386.59,1988.63 1387.84,1986.40 1389.93,1984.00"/>
    </edge>
    <edge id=":1171848159_0" function="internal">
        <lane id=":1171848159_0_0" index="0" disallow="pedestrian bicycle tram rail_urban rail rail_electric rail_fast ship" speed="27.78" length="0.46" shape="1367.55,1992.62 1367.50,1992.57 1367.47,1992.53 1367.43,1992.50 1367.38,1992.46"/>
        <lane id=":1171848159_0_1" index="1" disallow="pedestrian bicycle tram rail_urban rail rail_electric rail_fast ship" speed="27.78" length="0.46" shape="1369.90,1990.45 1369.76,1990.30 1369.66,1990.20 1369.56,1990.10 1369.40,1989.97"/>
    </edge>
    <edge id=":1171848183_0" function="internal">
        <lane id=":1171848183_0_0" index="0" disallow="pedestrian bicycle tram rail_urban rail rail_electric rail_fast ship" speed="27.78" length="9.90" shape="1118.45,1724.39 1126.04,1730.72"/>
        <lane id=":1171848183_0_1" index="1" disallow="pedestrian bicycle tram rail_urban rail rail_electric rail_fast ship" speed="27.78" length="9.90" shape="1116.39,1726.84 1124.00,1733.18"/>
    </edge>
    <edge id=":1171848183_2" function="internal">
        <lane id=":1171848183_2_0" index="0" disallow="pedestrian bicycle tram rail_urban rail rail_electric rail_fast ship" speed="6.18" length="8.03" shape="1116.39,1726.84 1117.61,1728.33 1117.98,1730.00 1117.49,1731.86 1116.13,1733.91"/>
    </edge>
    <edge id=":1171848231_0" function="internal">
        <lane id=":1171848231_0_0" index="0" disallow="tram rail_urban rail rail_electric rail_fast ship" speed="6.54" length="9.20" shape="1204.07,2264.91 1203.49,2262.50 1202.24,2260.86 1200.33,2260.00 1197.77,2259.90"/>
    </edge>
    <edge id=":1171848231_1" function="internal">
        <lane id=":1171848231_1_0" index="0" disallow="tram rail_urban rail rail_electric rail_fast ship" speed="22.22" length="14.52" shape="1204.07,2264.91 1202.17,2250.51"/>
    </edge>
    <edge id=":1171848231_2" function="internal">
        <lane id=":1171848231_2_0" index="0" disallow="tram rail_urban rail rail_electric rail_fast ship" speed="8.03" length="14.20" shape="1204.07,2264.91 1204.27,2261.02 1205.65,2258.11 1208.22,2256.19 1211.98,2255.26"/>
    </edge>
    <edge id=":1171848231_3" function="internal">
        <lane id=":1171848231_3_0" index="0" disallow="tram rail_urban rail rail_electric rail_fast ship" speed="3.65" length="4.67" shape="1204.07,2264.91 1204.76,2263.64 1205.52,2263.17 1206.35,2263.50 1207.26,2264.62"/>
    </edge>
    <edge id=":1171848231_4" function="internal">
        <lane id=":1171848231_4_0" index="0" disallow="tram rail_urban rail rail_electric rail_fast ship" speed="6.54" length="9.08" shape="1212.30,2258.44 1209.90,2259.04 1208.26,2260.27 1207.38,2262.13 1207.26,2264.62"/>
    </edge>
    <edge id=":1171848231_5" function="internal">
        <lane id=":1171848231_5_0" index="0" disallow="tram rail_urban rail rail_electric rail_fast ship" speed="22.22" length="14.61" shape="1212.30,2258.44 1197.77,2259.90"/>
    </edge>
    <edge id=":1171848231_6" function="internal">
        <lane id=":1171848231_6_0" index="0" disallow="tram rail_urban rail rail_electric rail_fast ship" speed="8.28" length="5.92" shape="1212.30,2258.44 1208.44,2258.27 1206.57,2257.41"/>
    </edge>
    <edge id=":1171848231_7" function="internal">
        <lane id=":1171848231_7_0" index="0" disallow="tram rail_urban rail rail_electric rail_fast ship" speed="3.65" length="2.34" shape="1212.30,2258.44 1211.03,2257.77 1210.55,2257.01"/>
    </edge>
    <edge id=":1171848231_16" function="internal">
        <lane id=":1171848231_16_0" index="0" disallow="tram rail_urban rail rail_electric rail_fast ship" speed="8.28" length="8.54" shape="1206.57,2257.41 1205.46,2256.89 1203.37,2254.31 1202.17,2250.51"/>
    </edge>
    <edge id=":1171848231_17" function="internal">
        <lane id=":1171848231_17_0" index="0" disallow="tram rail_urban rail rail_electric rail_fast ship" speed="3.65" length="2.34" shape="1210.55,2257.01 1210.87,2256.18 1211.98,2255.26"/>
    </edge>
    <edge id=":1171848231_8" function="internal">
        <lane id=":1171848231_8_0" index="0" disallow="tram rail_urban rail rail_electric rail_fast ship" speed="6.85" length="9.56" shape="1205.32,2249.97 1206.12,2252.50 1207.49,2254.22 1209.45,2255.14 1211.98,2255.26"/>
    </edge>
    <edge id=":1171848231_9" function="internal">
        <lane id=":1171848231_9_0" index="0" disallow="tram rail_urban rail rail_electric rail_fast ship" speed="22.22" length="14.78" shape="1205.32,2249.97 1207.26,2264.62"/>
    </edge>
    <edge id=":1171848231_10" function="internal">
        <lane id=":1171848231_10_0" index="0" disallow="tram rail_urban rail rail_electric rail_fast ship" speed="7.88" length="14.47" shape="1205.32,2249.97 1205.43,2253.97 1204.21,2256.96 1201.66,2258.94 1197.77,2259.90"/>
    </edge>
    <edge id=":1171848231_11" function="internal">
        <lane id=":1171848231_11_0" index="0" disallow="tram rail_urban rail rail_electric rail_fast ship" speed="3.65" length="4.67" shape="1205.32,2249.97 1204.74,2251.29 1204.02,2251.82 1203.16,2251.56 1202.17,2250.51"/>
    </edge>
    <edge id=":1171848231_12" function="internal">
        <lane id=":1171848231_12_0" index="0" disallow="tram rail_urban rail rail_electric rail_fast ship" speed="6.36" length="9.04" shape="1197.45,2256.72 1199.88,2256.12 1201.47,2254.88 1202.24,2253.01 1202.17,2250.51"/>
    </edge>
    <edge id=":1171848231_13" function="internal">
        <lane id=":1171848231_13_0" index="0" disallow="tram rail_urban rail rail_electric rail_fast ship" speed="22.22" length="14.61" shape="1197.45,2256.72 1211.98,2255.26"/>
    </edge>
    <edge id=":1171848231_14" function="internal">
        <lane id=":1171848231_14_0" index="0" disallow="tram rail_urban rail rail_electric rail_fast ship" speed="8.03" length="6.05" shape="1197.45,2256.72 1201.44,2256.87 1203.31,2257.74"/>
    </edge>
    <edge id=":1171848231_15" function="internal">
        <lane id=":1171848231_15_0" index="0" disallow="tram rail_urban rail rail_electric rail_fast ship" speed="3.65" length="2.34" shape="1197.45,2256.72 1198.72,2257.39 1199.20,2258.15"/>
    </edge>
    <edge id=":1171848231_18" function="internal">
        <lane id=":1171848231_18_0" index="0" disallow="tram rail_urban rail rail_electric rail_fast ship" speed="8.03" length="8.34" shape="1203.31,2257.74 1204.40,2258.24 1206.34,2260.83 1207.26,2264.62"/>
    </edge>
    <edge id=":1171848231_19" function="internal">
        <lane id=":1171848231_19_0" index="0" disallow="tram rail_urban rail rail_electric rail_fast ship" speed="3.65" length="2.34" shape="1199.20,2258.15 1198.88,2258.99 1197.77,2259.90"/>
    </edge>
    <edge id=":1171848299_0" function="internal">
        <lane id=":1171848299_0_0" index="0" disallow="pedestrian bicycle tram rail_urban rail rail_electric rail_fast ship" speed="6.49" length="9.03" shape="1005.80,1695.71 1003.69,1694.41 1001.67,1694.10 999.76,1694.78 997.93,1696.46"/>
    </edge>
    <edge id=":1171848299_1" function="internal">
        <lane id=":1171848299_1_0" index="0" disallow="tram rail_urban rail rail_electric rail_fast ship" speed="3.65" length="4.67" shape="995.45,1694.44 996.83,1694.01 997.70,1694.21 998.07,1695.03 997.93,1696.46"/>
    </edge>
    <edge id=":1171848319_0" function="internal">
        <lane id=":1171848319_0_0" index="0" disallow="tram rail_urban rail rail_electric rail_fast ship" speed="3.65" length="4.67" shape="1375.63,2004.96 1377.01,2004.55 1377.88,2004.76 1378.24,2005.58 1378.09,2007.01"/>
    </edge>
    <edge id=":1171848365_0" function="internal">
        <lane id=":1171848365_0_0" index="0" disallow="tram rail_urban rail rail_electric rail_fast ship" speed="6.45" length="9.03" shape="1610.05,1891.18 1609.48,1888.76 1608.27,1887.13 1606.42,1886.29 1603.93,1886.23"/>
    </edge>
    <edge id=":1171848365_1" function="internal">
        <lane id=":1171848365_1_0" index="0" disallow="tram rail_urban rail rail_electric rail_fast ship" speed="22.22" length="14.53" shape="1610.05,1891.18 1608.73,1876.71"/>
    </edge>
    <edge id=":1171848365_2" function="internal">
        <lane id=":1171848365_2_0" index="0" disallow="tram rail_urban rail rail_electric rail_fast ship" speed="8.07" length="5.98" shape="1610.05,1891.18 1610.25,1887.26 1611.13,1885.40"/>
    </edge>
    <edge id=":1171848365_3" function="internal">
        <lane id=":1171848365_3_0" index="0" disallow="tram rail_urban rail rail_electric rail_fast ship" speed="3.65" length="2.34" shape="1610.05,1891.18 1610.74,1889.91 1611.50,1889.44"/>
    </edge>
    <edge id=":1171848365_16" function="internal">
        <lane id=":1171848365_16_0" index="0" disallow="tram rail_urban rail rail_electric rail_fast ship" speed="8.07" length="8.33" shape="1611.13,1885.40 1611.64,1884.33 1614.23,1882.39 1618.02,1881.43"/>
    </edge>
    <edge id=":1171848365_17" function="internal">
        <lane id=":1171848365_17_0" index="0" disallow="tram rail_urban rail rail_electric rail_fast ship" speed="3.65" length="2.34" shape="1611.50,1889.44 1612.33,1889.77 1613.24,1890.89"/>
    </edge>
    <edge id=":1171848365_4" function="internal">