<?xml version="1.0" encoding="UTF-8"?>

<!-- generated on 10/18/22 23:37:14 by Eclipse SUMO netedit Version 1.8.0
<configuration xmlns:xsi="http://www.w3.org/2001/XMLSchema-instance" xsi:noNamespaceSchemaLocation="http://sumo.dlr.de/xsd/netconvertConfiguration.xsd">

    <output>
        <output-file value="D:\veins\sumo-1.8.0\tools\crosses\crosses.net.xml"/>
    </output>

    <processing>
        <offset.disable-normalization value="true"/>
    </processing>

    <junctions>
        <no-turnarounds value="true"/>
    </junctions>

    <report>
        <aggregate-warnings value="5"/>
    </report>

</configuration>
-->

<net version="1.6" junctionCornerDetail="5" limitTurnSpeed="5.50" xmlns:xsi="http://www.w3.org/2001/XMLSchema-instance" xsi:noNamespaceSchemaLocation="http://sumo.dlr.de/xsd/net_file.xsd">

    <location netOffset="0.00,0.00" convBoundary="-724.21,-5.38,68.52,640.93" origBoundary="10000000000.00,10000000000.00,-10000000000.00,-10000000000.00" projParameter="!"/>

    <edge id=":gneJ20_0" function="internal">
        <lane id=":gneJ20_0_0" index="0" speed="6.49" length="9.03" shape="-500.80,324.24 -503.25,324.57 -505.01,325.61 -506.06,327.35 -506.42,329.80"/>
    </edge>
    <edge id=":gneJ20_1" function="internal">
        <lane id=":gneJ20_1_0" index="0" speed="13.89" length="14.42" shape="-500.80,324.24 -515.21,324.19"/>
    </edge>
    <edge id=":gneJ20_2" function="internal">
        <lane id=":gneJ20_2_0" index="0" speed="8.04" length="14.23" shape="-500.80,324.24 -504.65,323.66 -507.40,321.99 -509.06,319.23 -509.62,315.38"/>
    </edge>
    <edge id=":gneJ20_3" function="internal">
        <lane id=":gneJ20_3_0" index="0" speed="6.56" length="9.11" shape="-506.42,315.37 -506.06,317.83 -505.00,319.60 -503.24,320.67 -500.77,321.04"/>
    </edge>
    <edge id=":gneJ20_4" function="internal">
        <lane id=":gneJ20_4_0" index="0" speed="13.89" length="14.43" shape="-506.42,315.37 -506.42,329.80"/>
    </edge>
    <edge id=":gneJ20_5" function="internal">
        <lane id=":gneJ20_5_0" index="0" speed="8.00" length="5.96" shape="-506.42,315.37 -506.96,319.22 -508.02,321.00"/>
    </edge>
    <edge id=":gneJ20_12" function="internal">
        <lane id=":gneJ20_12_0" index="0" speed="8.00" length="8.25" shape="-508.02,321.00 -508.61,321.98 -511.36,323.63 -515.21,324.19"/>
    </edge>
    <edge id=":gneJ20_6" function="internal">
        <lane id=":gneJ20_6_0" index="0" speed="6.51" length="9.04" shape="-515.22,320.99 -512.76,320.64 -511.01,319.58 -509.97,317.83 -509.62,315.38"/>
    </edge>
    <edge id=":gneJ20_7" function="internal">
        <lane id=":gneJ20_7_0" index="0" speed="13.89" length="14.45" shape="-515.22,320.99 -500.77,321.04"/>
    </edge>
    <edge id=":gneJ20_8" function="internal">
        <lane id=":gneJ20_8_0" index="0" speed="8.00" length="14.21" shape="-515.22,320.99 -511.36,321.54 -508.61,323.19 -506.96,325.94 -506.42,329.80"/>
    </edge>
    <edge id=":gneJ20_9" function="internal">
        <lane id=":gneJ20_9_0" index="0" speed="6.50" length="9.04" shape="-509.62,329.79 -509.96,327.34 -511.01,325.59 -512.76,324.54 -515.21,324.19"/>
    </edge>
    <edge id=":gneJ20_10" function="internal">
        <lane id=":gneJ20_10_0" index="0" speed="13.89" length="14.42" shape="-509.62,329.79 -509.62,315.38"/>
    </edge>
    <edge id=":gneJ20_11" function="internal">
        <lane id=":gneJ20_11_0" index="0" speed="7.99" length="5.90" shape="-509.62,329.79 -509.06,325.94 -508.02,324.22"/>
    </edge>
    <edge id=":gneJ20_13" function="internal">
        <lane id=":gneJ20_13_0" index="0" speed="7.99" length="8.31" shape="-508.02,324.22 -507.40,323.19 -504.63,321.56 -500.77,321.04"/>
    </edge>
    <edge id=":gneJ21_0" function="internal">
        <lane id=":gneJ21_0_0" index="0" speed="6.54" length="9.07" shape="-307.22,325.76 -309.68,326.12 -311.45,327.18 -312.51,328.93 -312.87,331.38"/>
    </edge>
    <edge id=":gneJ21_1" function="internal">
        <lane id=":gneJ21_1_0" index="0" speed="13.89" length="14.46" shape="-307.22,325.76 -321.68,325.73"/>
    </edge>
    <edge id=":gneJ21_2" function="internal">
        <lane id=":gneJ21_2_0" index="0" speed="7.99" length="14.22" shape="-307.22,325.76 -311.08,325.23 -313.84,323.58 -315.49,320.83 -316.03,316.97"/>
    </edge>
    <edge id=":gneJ21_3" function="internal">
        <lane id=":gneJ21_3_0" index="0" speed="6.49" length="9.03" shape="-312.83,316.97 -312.48,319.43 -311.44,321.18 -309.68,322.22 -307.23,322.56"/>
    </edge>
    <edge id=":gneJ21_4" function="internal">
        <lane id=":gneJ21_4_0" index="0" speed="13.89" length="14.41" shape="-312.83,316.97 -312.87,331.38"/>
    </edge>
    <edge id=":gneJ21_5" function="internal">
        <lane id=":gneJ21_5_0" index="0" speed="7.99" length="5.94" shape="-312.83,316.97 -313.39,320.83 -314.45,322.58"/>
    </edge>
    <edge id=":gneJ21_12" function="internal">
        <lane id=":gneJ21_12_0" index="0" speed="7.99" length="8.28" shape="-314.45,322.58 -315.05,323.58 -317.81,325.21 -321.68,325.73"/>
    </edge>
    <edge id=":gneJ21_6" function="internal">
        <lane id=":gneJ21_6_0" index="0" speed="6.49" length="9.03" shape="-321.65,322.53 -319.20,322.20 -317.44,321.17 -316.39,319.42 -316.03,316.97"/>
    </edge>
    <edge id=":gneJ21_7" function="internal">
        <lane id=":gneJ21_7_0" index="0" speed="13.89" length="14.42" shape="-321.65,322.53 -307.23,322.56"/>
    </edge>
    <edge id=":gneJ21_8" function="internal">
        <lane id=":gneJ21_8_0" index="0" speed="8.02" length="14.20" shape="-321.65,322.53 -317.80,323.11 -315.05,324.78 -313.41,327.54 -312.87,331.38"/>
    </edge>
    <edge id=":gneJ21_9" function="internal">
        <lane id=":gneJ21_9_0" index="0" speed="6.53" length="9.06" shape="-316.07,331.37 -316.41,328.92 -317.46,327.17 -319.22,326.10 -321.68,325.73"/>
    </edge>
    <edge id=":gneJ21_10" function="internal">
        <lane id=":gneJ21_10_0" index="0" speed="13.89" length="14.40" shape="-316.07,331.37 -316.03,316.97"/>
    </edge>
    <edge id=":gneJ21_11" function="internal">
        <lane id=":gneJ21_11_0" index="0" speed="8.03" length="5.91" shape="-316.07,331.37 -315.50,327.53 -314.45,325.79"/>
    </edge>
    <edge id=":gneJ21_13" function="internal">
        <lane id=":gneJ21_13_0" index="0" speed="8.03" length="8.29" shape="-314.45,325.79 -313.84,324.78 -311.09,323.13 -307.23,322.56"/>
    </edge>
    <edge id=":gneJ22_0" function="internal">
        <lane id=":gneJ22_0_0" index="0" speed="6.50" length="9.03" shape="-136.19,330.60 -136.54,328.15 -137.59,326.40 -139.35,325.36 -141.80,325.02"/>
    </edge>
    <edge id=":gneJ22_1" function="internal">
        <lane id=":gneJ22_1_0" index="0" speed="13.89" length="14.45" shape="-136.19,330.60 -136.18,316.15"/>
    </edge>
    <edge id=":gneJ22_2" function="internal">
        <lane id=":gneJ22_2_0" index="0" speed="8.03" length="14.23" shape="-136.19,330.60 -135.64,326.74 -133.99,323.98 -131.24,322.32 -127.38,321.74"/>
    </edge>
    <edge id=":gneJ22_3" function="internal">
        <lane id=":gneJ22_3_0" index="0" speed="6.54" length="9.09" shape="-127.36,324.94 -129.82,325.31 -131.58,326.37 -132.64,328.13 -132.99,330.59"/>
    </edge>
    <edge id=":gneJ22_4" function="internal">
        <lane id=":gneJ22_4_0" index="0" speed="13.89" length="14.44" shape="-127.36,324.94 -141.80,325.02"/>
    </edge>
    <edge id=":gneJ22_5" function="internal">
        <lane id=":gneJ22_5_0" index="0" speed="7.99" length="5.94" shape="-127.36,324.94 -131.23,324.41 -132.98,323.37"/>
    </edge>
    <edge id=":gneJ22_12" function="internal">
        <lane id=":gneJ22_12_0" index="0" speed="7.99" length="8.29" shape="-132.98,323.37 -133.98,322.77 -135.63,320.02 -136.18,316.15"/>
    </edge>
    <edge id=":gneJ22_6" function="internal">
        <lane id=":gneJ22_6_0" index="0" speed="6.49" length="9.03" shape="-132.98,316.16 -132.63,318.62 -131.58,320.36 -129.83,321.41 -127.38,321.74"/>
    </edge>
    <edge id=":gneJ22_7" function="internal">
        <lane id=":gneJ22_7_0" index="0" speed="13.89" length="14.43" shape="-132.98,316.16 -132.99,330.59"/>
    </edge>
    <edge id=":gneJ22_8" function="internal">
        <lane id=":gneJ22_8_0" index="0" speed="8.03" length="14.23" shape="-132.98,316.16 -133.54,320.02 -135.19,322.78 -137.95,324.45 -141.80,325.02"/>
    </edge>
    <edge id=":gneJ22_9" function="internal">
        <lane id=":gneJ22_9_0" index="0" speed="6.55" length="9.10" shape="-141.81,321.82 -139.35,321.46 -137.59,320.39 -136.53,318.62 -136.18,316.15"/>
    </edge>
    <edge id=":gneJ22_10" function="internal">
        <lane id=":gneJ22_10_0" index="0" speed="13.89" length="14.44" shape="-141.81,321.82 -127.38,321.74"/>
    </edge>
    <edge id=":gneJ22_11" function="internal">
        <lane id=":gneJ22_11_0" index="0" speed="8.00" length="5.92" shape="-141.81,321.82 -137.96,322.35 -136.22,323.39"/>
    </edge>
    <edge id=":gneJ22_13" function="internal">
        <lane id=":gneJ22_13_0" index="0" speed="8.00" length="8.28" shape="-136.22,323.39 -135.20,323.99 -133.54,326.74 -132.99,330.59"/>
    </edge>
    <edge id=":gneJ25_0" function="internal">
        <lane id=":gneJ25_0_0" index="0" speed="6.53" length="9.09" shape="-510.05,170.77 -510.41,168.30 -511.47,166.54 -513.23,165.48 -515.69,165.13"/>
    </edge>
    <edge id=":gneJ25_1" function="internal">
        <lane id=":gneJ25_1_0" index="0" speed="13.89" length="14.45" shape="-510.05,170.77 -510.11,156.32"/>
    </edge>
    <edge id=":gneJ25_2" function="internal">
        <lane id=":gneJ25_2_0" index="0" speed="7.98" length="5.92" shape="-510.05,170.77 -509.51,166.90 -508.47,165.17"/>
    </edge>
    <edge id=":gneJ25_12" function="internal">
        <lane id=":gneJ25_12_0" index="0" speed="7.98" length="8.31" shape="-508.47,165.17 -507.86,164.14 -505.10,162.51 -501.23,161.98"/>
    </edge>
    <edge id=":gneJ25_3" function="internal">
        <lane id=":gneJ25_3_0" index="0" speed="6.48" length="9.03" shape="-501.25,165.18 -503.71,165.51 -505.46,166.55 -506.51,168.30 -506.85,170.76"/>
    </edge>
    <edge id=":gneJ25_4" function="internal">
        <lane id=":gneJ25_4_0" index="0" speed="13.89" length="14.44" shape="-501.25,165.18 -515.69,165.13"/>
    </edge>
    <edge id=":gneJ25_5" function="internal">
        <lane id=":gneJ25_5_0" index="0" speed="8.05" length="14.25" shape="-501.25,165.18 -505.11,164.60 -507.87,162.93 -509.54,160.17 -510.11,156.32"/>
    </edge>
    <edge id=":gneJ25_6" function="internal">
        <lane id=":gneJ25_6_0" index="0" speed="6.57" length="9.13" shape="-506.91,156.30 -506.54,158.77 -505.47,160.54 -503.70,161.61 -501.23,161.98"/>
    </edge>
    <edge id=":gneJ25_7" function="internal">
        <lane id=":gneJ25_7_0" index="0" speed="13.89" length="14.45" shape="-506.91,156.30 -506.85,170.76"/>
    </edge>
    <edge id=":gneJ25_8" function="internal">
        <lane id=":gneJ25_8_0" index="0" speed="7.99" length="5.94" shape="-506.91,156.30 -507.44,160.16 -508.49,161.92"/>
    </edge>
    <edge id=":gneJ25_13" function="internal">
        <lane id=":gneJ25_13_0" index="0" speed="7.99" length="8.27" shape="-508.49,161.92 -509.08,162.92 -511.83,164.58 -515.69,165.13"/>
    </edge>
    <edge id=":gneJ25_9" function="internal">
        <lane id=":gneJ25_9_0" index="0" speed="6.50" length="9.03" shape="-515.69,161.93 -513.24,161.58 -511.49,160.53 -510.45,158.77 -510.11,156.32"/>
    </edge>
    <edge id=":gneJ25_10" function="internal">
        <lane id=":gneJ25_10_0" index="0" speed="13.89" length="14.46" shape="-515.69,161.93 -501.23,161.98"/>
    </edge>
    <edge id=":gneJ25_11" function="internal">
        <lane id=":gneJ25_11_0" index="0" speed="8.02" length="14.24" shape="-515.69,161.93 -511.83,162.48 -509.07,164.14 -507.41,166.89 -506.85,170.76"/>
    </edge>
    <edge id=":gneJ26_0" function="internal">
        <lane id=":gneJ26_0_0" index="0" speed="6.54" length="9.02" shape="-307.01,166.45 -309.44,166.83 -311.18,167.91 -312.22,169.67 -312.57,172.12"/>
    </edge>
    <edge id=":gneJ26_1" function="internal">
        <lane id=":gneJ26_1_0" index="0" speed="13.89" length="14.32" shape="-307.01,166.45 -321.34,166.51"/>
    </edge>
    <edge id=":gneJ26_2" function="internal">
        <lane id=":gneJ26_2_0" index="0" speed="6.95" length="10.55" shape="-307.01,166.45 -309.78,166.07 -312.63,165.00 -314.86,163.46 -315.77,161.68"/>
    </edge>
    <edge id=":gneJ26_3" function="internal">
        <lane id=":gneJ26_3_0" index="0" speed="5.46" length="6.10" shape="-312.57,161.66 -312.22,162.39 -311.19,162.89 -309.47,163.18 -307.06,163.25"/>
    </edge>
    <edge id=":gneJ26_4" function="internal">
        <lane id=":gneJ26_4_0" index="0" speed="13.89" length="10.45" shape="-312.57,161.66 -312.57,172.12"/>
    </edge>
    <edge id=":gneJ26_5" function="internal">
        <lane id=":gneJ26_5_0" index="0" speed="6.97" length="2.86" shape="-312.57,161.66 -313.46,163.46 -314.17,163.95"/>
    </edge>
    <edge id=":gneJ26_12" function="internal">
        <lane id=":gneJ26_12_0" index="0" speed="6.97" length="7.74" shape="-314.17,163.95 -315.70,165.01 -318.56,166.11 -321.34,166.51"/>
    </edge>
    <edge id=":gneJ26_6" function="internal">
        <lane id=":gneJ26_6_0" index="0" speed="5.48" length="6.16" shape="-321.31,163.31 -318.88,163.22 -317.15,162.92 -316.11,162.41 -315.77,161.68"/>
    </edge>
    <edge id=":gneJ26_7" function="internal">
        <lane id=":gneJ26_7_0" index="0" speed="13.89" length="14.25" shape="-321.31,163.31 -307.06,163.25"/>
    </edge>
    <edge id=":gneJ26_8" function="internal">
        <lane id=":gneJ26_8_0" index="0" speed="7.81" length="13.40" shape="-321.31,163.31 -318.20,164.11 -315.39,166.17 -313.35,169.00 -312.57,172.12"/>
    </edge>
    <edge id=":gneJ26_9" function="internal">
        <lane id=":gneJ26_9_0" index="0" speed="6.51" length="9.00" shape="-315.77,172.11 -316.12,169.68 -317.16,167.93 -318.90,166.87 -321.34,166.51"/>
    </edge>
    <edge id=":gneJ26_10" function="internal">
        <lane id=":gneJ26_10_0" index="0" speed="13.89" length="10.44" shape="-315.77,172.11 -315.77,161.68"/>
    </edge>
    <edge id=":gneJ26_11" function="internal">
        <lane id=":gneJ26_11_0" index="0" speed="7.84" length="4.64" shape="-315.77,172.11 -314.99,168.99 -314.17,167.84"/>
    </edge>
    <edge id=":gneJ26_13" function="internal">
        <lane id=":gneJ26_13_0" index="0" speed="7.84" length="8.77" shape="-314.17,167.84 -312.97,166.15 -310.17,164.08 -307.06,163.25"/>
    </edge>
    <edge id=":gneJ27_0" function="internal">
        <lane id=":gneJ27_0_0" index="0" speed="6.52" length="9.08" shape="-126.95,163.72 -129.40,164.07 -131.15,165.12 -132.21,166.89 -132.56,169.36"/>
    </edge>
    <edge id=":gneJ27_1" function="internal">
        <lane id=":gneJ27_1_0" index="0" speed="13.89" length="14.43" shape="-126.95,163.72 -141.38,163.81"/>
    </edge>
    <edge id=":gneJ27_2" function="internal">
        <lane id=":gneJ27_2_0" index="0" speed="8.01" length="14.19" shape="-126.95,163.72 -130.79,163.16 -133.54,161.51 -135.20,158.76 -135.75,154.91"/>
    </edge>
    <edge id=":gneJ27_3" function="internal">
        <lane id=":gneJ27_3_0" index="0" speed="6.52" length="9.04" shape="-132.55,154.91 -132.20,157.36 -131.14,159.11 -129.39,160.16 -126.94,160.52"/>
    </edge>
    <edge id=":gneJ27_4" function="internal">
        <lane id=":gneJ27_4_0" index="0" speed="13.89" length="14.45" shape="-132.55,154.91 -132.56,169.36"/>
    </edge>
    <edge id=":gneJ27_5" function="internal">
        <lane id=":gneJ27_5_0" index="0" speed="8.06" length="5.94" shape="-132.55,154.91 -133.10,158.75 -134.15,160.52"/>
    </edge>
    <edge id=":gneJ27_12" function="internal">
        <lane id=":gneJ27_12_0" index="0" speed="8.06" length="8.31" shape="-134.15,160.52 -134.75,161.52 -137.51,163.21 -141.38,163.81"/>
    </edge>
    <edge id=":gneJ27_6" function="internal">
        <lane id=":gneJ27_6_0" index="0" speed="6.58" length="9.15" shape="-141.43,160.61 -138.94,160.22 -137.17,159.14 -136.10,157.37 -135.75,154.91"/>
    </edge>
    <edge id=":gneJ27_7" function="internal">
        <lane id=":gneJ27_7_0" index="0" speed="13.89" length="14.49" shape="-141.43,160.61 -126.94,160.52"/>
    </edge>
    <edge id=":gneJ27_8" function="internal">
        <lane id=":gneJ27_8_0" index="0" speed="7.97" length="14.26" shape="-141.43,160.61 -137.54,161.11 -134.77,162.73 -133.11,165.48 -132.56,169.36"/>
    </edge>
    <edge id=":gneJ27_9" function="internal">
        <lane id=":gneJ27_9_0" index="0" speed="6.47" length="9.03" shape="-135.76,169.36 -136.11,166.90 -137.16,165.15 -138.91,164.13 -141.38,163.81"/>
    </edge>
    <edge id=":gneJ27_10" function="internal">
        <lane id=":gneJ27_10_0" index="0" speed="13.89" length="14.44" shape="-135.76,169.36 -135.75,154.91"/>
    </edge>
    <edge id=":gneJ27_11" function="internal">
        <lane id=":gneJ27_11_0" index="0" speed="8.01" length="5.95" shape="-135.76,169.36 -135.20,165.48 -134.16,163.74"/>
    </edge>
    <edge id=":gneJ27_13" function="internal">
        <lane id=":gneJ27_13_0" index="0" speed="8.01" length="8.30" shape="-134.16,163.74 -133.54,162.72 -130.79,161.06 -126.94,160.52"/>
    </edge>
    <edge id=":gneJ6_0" function="internal">
        <lane id=":gneJ6_0_0" index="0" speed="6.51" length="9.03" shape="-510.05,502.34 -510.40,499.89 -511.45,498.14 -513.20,497.09 -515.65,496.74"/>
    </edge>
    <edge id=":gneJ6_1" function="internal">
        <lane id=":gneJ6_1_0" index="0" speed="13.89" length="14.41" shape="-510.05,502.34 -510.03,487.92"/>
    </edge>
    <edge id=":gneJ6_2" function="internal">
        <lane id=":gneJ6_2_0" index="0" speed="8.01" length="14.20" shape="-510.05,502.34 -509.50,498.49 -507.84,495.74 -505.09,494.09 -501.24,493.54"/>
    </edge>
    <edge id=":gneJ6_3" function="internal">
        <lane id=":gneJ6_3_0" index="0" speed="6.51" length="9.04" shape="-501.24,496.74 -503.69,497.09 -505.44,498.14 -506.50,499.89 -506.85,502.34"/>
    </edge>
    <edge id=":gneJ6_4" function="internal">
        <lane id=":gneJ6_4_0" index="0" speed="13.89" length="14.41" shape="-501.24,496.74 -515.65,496.74"/>
    </edge>
    <edge id=":gneJ6_5" function="internal">
        <lane id=":gneJ6_5_0" index="0" speed="8.00" length="5.93" shape="-501.24,496.74 -505.09,496.19 -506.84,495.14"/>
    </edge>
    <edge id=":gneJ6_12" function="internal">
        <lane id=":gneJ6_12_0" index="0" speed="8.00" length="8.27" shape="-506.84,495.14 -507.84,494.53 -509.48,491.78 -510.03,487.92"/>
    </edge>
    <edge id=":gneJ6_6" function="internal">
        <lane id=":gneJ6_6_0" index="0" speed="6.50" length="9.03" shape="-506.83,487.93 -506.48,490.38 -505.44,492.14 -503.69,493.19 -501.24,493.54"/>
    </edge>
    <edge id=":gneJ6_7" function="internal">
        <lane id=":gneJ6_7_0" index="0" speed="13.89" length="14.41" shape="-506.83,487.93 -506.85,502.34"/>
    </edge>
    <edge id=":gneJ6_8" function="internal">
        <lane id=":gneJ6_8_0" index="0" speed="8.01" length="14.20" shape="-506.83,487.93 -507.39,491.78 -509.04,494.54 -511.80,496.19 -515.65,496.74"/>
    </edge>
    <edge id=":gneJ6_9" function="internal">
        <lane id=":gneJ6_9_0" index="0" speed="6.52" length="9.05" shape="-515.65,493.54 -513.19,493.19 -511.44,492.13 -510.38,490.38 -510.03,487.92"/>
    </edge>
    <edge id=":gneJ6_10" function="internal">
        <lane id=":gneJ6_10_0" index="0" speed="13.89" length="14.41" shape="-515.65,493.54 -501.24,493.54"/>
    </edge>
    <edge id=":gneJ6_11" function="internal">
        <lane id=":gneJ6_11_0" index="0" speed="8.00" length="5.93" shape="-515.65,493.54 -511.80,494.09 -510.05,495.14"/>
    </edge>
    <edge id=":gneJ6_13" function="internal">
        <lane id=":gneJ6_13_0" index="0" speed="8.00" length="8.26" shape="-510.05,495.14 -509.05,495.74 -507.40,498.49 -506.85,502.34"/>
    </edge>
    <edge id=":gneJ7_0" function="internal">
        <lane id=":gneJ7_0_0" index="0" speed="6.51" length="9.04" shape="-316.61,502.34 -316.96,499.89 -318.01,498.14 -319.76,497.09 -322.21,496.74"/>
    </edge>
    <edge id=":gneJ7_1" function="internal">
        <lane id=":gneJ7_1_0" index="0" speed="13.89" length="14.42" shape="-316.61,502.34 -316.59,487.92"/>
    </edge>
    <edge id=":gneJ7_2" function="internal">
        <lane id=":gneJ7_2_0" index="0" speed="8.00" length="14.20" shape="-316.61,502.34 -316.06,498.49 -314.41,495.74 -311.66,494.09 -307.80,493.54"/>
    </edge>
    <edge id=":gneJ7_3" function="internal">
        <lane id=":gneJ7_3_0" index="0" speed="6.51" length="9.04" shape="-307.80,496.74 -310.26,497.09 -312.01,498.14 -313.06,499.89 -313.41,502.34"/>
    </edge>
    <edge id=":gneJ7_4" function="internal">
        <lane id=":gneJ7_4_0" index="0" speed="13.89" length="14.41" shape="-307.80,496.74 -322.21,496.74"/>
    </edge>
    <edge id=":gneJ7_5" function="internal">
        <lane id=":gneJ7_5_0" index="0" speed="8.00" length="5.93" shape="-307.80,496.74 -311.66,496.19 -313.40,495.14"/>
    </edge>
    <edge id=":gneJ7_12" function="internal">
        <lane id=":gneJ7_12_0" index="0" speed="8.00" length="8.27" shape="-313.40,495.14 -314.41,494.53 -316.05,491.78 -316.59,487.92"/>
    </edge>
    <edge id=":gneJ7_6" function="internal">
        <lane id=":gneJ7_6_0" index="0" speed="6.50" length="9.03" shape="-313.39,487.93 -313.05,490.38 -312.00,492.14 -310.26,493.19 -307.80,493.54"/>
    </edge>
    <edge id=":gneJ7_7" function="internal">
        <lane id=":gneJ7_7_0" index="0" speed="13.89" length="14.41" shape="-313.39,487.93 -313.41,502.34"/>
    </edge>
    <edge id=":gneJ7_8" function="internal">
        <lane id=":gneJ7_8_0" index="0" speed="8.01" length="14.20" shape="-313.39,487.93 -313.95,491.78 -315.61,494.54 -318.36,496.19 -322.21,496.74"/>
    </edge>
    <edge id=":gneJ7_9" function="internal">
        <lane id=":gneJ7_9_0" index="0" speed="6.52" length="9.05" shape="-322.21,493.54 -319.76,493.19 -318.01,492.13 -316.95,490.38 -316.59,487.92"/>
    </edge>
    <edge id=":gneJ7_10" function="internal">
        <lane id=":gneJ7_10_0" index="0" speed="13.89" length="14.41" shape="-322.21,493.54 -307.80,493.54"/>
    </edge>
    <edge id=":gneJ7_11" function="internal">
        <lane id=":gneJ7_11_0" index="0" speed="8.01" length="5.93" shape="-322.21,493.54 -318.36,494.09 -316.61,495.14"/>
    </edge>
    <edge id=":gneJ7_13" function="internal">
        <lane id=":gneJ7_13_0" index="0" speed="8.01" length="8.27" shape="-316.61,495.14 -315.61,495.74 -313.96,498.49 -313.41,502.34"/>
    </edge>
    <edge id=":gneJ8_0" function="internal">
        <lane id=":gneJ8_0_0" index="0" speed="6.51" length="9.03" shape="-135.94,502.34 -136.29,499.89 -137.34,498.14 -139.09,497.09 -141.54,496.74"/>
    </edge>
    <edge id=":gneJ8_1" function="internal">
        <lane id=":gneJ8_1_0" index="0" speed="13.89" length="14.40" shape="-135.94,502.34 -135.95,487.93"/>
    </edge>
    <edge id=":gneJ8_2" function="internal">
        <lane id=":gneJ8_2_0" index="0" speed="8.00" length="14.19" shape="-135.94,502.34 -135.39,498.49 -133.74,495.74 -130.99,494.09 -127.14,493.54"/>
    </edge>
    <edge id=":gneJ8_3" function="internal">
        <lane id=":gneJ8_3_0" index="0" speed="6.51" length="9.03" shape="-127.14,496.74 -129.59,497.09 -131.34,498.14 -132.39,499.89 -132.74,502.34"/>
    </edge>
    <edge id=":gneJ8_4" function="internal">
        <lane id=":gneJ8_4_0" index="0" speed="13.89" length="14.40" shape="-127.14,496.74 -141.54,496.74"/>
    </edge>
    <edge id=":gneJ8_5" function="internal">
        <lane id=":gneJ8_5_0" index="0" speed="8.01" length="5.93" shape="-127.14,496.74 -130.99,496.19 -132.74,495.14"/>
    </edge>
    <edge id=":gneJ8_12" function="internal">
        <lane id=":gneJ8_12_0" index="0" speed="8.01" length="8.27" shape="-132.74,495.14 -133.74,494.54 -135.40,491.79 -135.95,487.93"/>
    </edge>
    <edge id=":gneJ8_6" function="internal">
        <lane id=":gneJ8_6_0" index="0" speed="6.51" length="9.04" shape="-132.75,487.93 -132.40,490.38 -131.34,492.14 -129.59,493.19 -127.14,493.54"/>
    </edge>
    <edge id=":gneJ8_7" function="internal">
        <lane id=":gneJ8_7_0" index="0" speed="13.89" length="14.41" shape="-132.75,487.93 -132.74,502.34"/>
    </edge>
    <edge id=":gneJ8_8" function="internal">
        <lane id=":gneJ8_8_0" index="0" speed="8.00" length="14.20" shape="-132.75,487.93 -133.30,491.78 -134.94,494.54 -137.69,496.19 -141.54,496.74"/>
    </edge>
    <edge id=":gneJ8_9" function="internal">
        <lane id=":gneJ8_9_0" index="0" speed="6.50" length="9.03" shape="-141.54,493.54 -139.09,493.19 -137.34,492.14 -136.30,490.39 -135.95,487.93"/>
    </edge>
    <edge id=":gneJ8_10" function="internal">
        <lane id=":gneJ8_10_0" index="0" speed="13.89" length="14.40" shape="-141.54,493.54 -127.14,493.54"/>
    </edge>
    <edge id=":gneJ8_11" function="internal">
        <lane id=":gneJ8_11_0" index="0" speed="8.00" length="5.93" shape="-141.54,493.54 -137.69,494.09 -135.94,495.14"/>
    </edge>
    <edge id=":gneJ8_13" function="internal">
        <lane id=":gneJ8_13_0" index="0" speed="8.00" length="8.26" shape="-135.94,495.14 -134.94,495.74 -133.29,498.49 -132.74,502.34"/>
    </edge>

    <edge id="gneE10" from="gneJ7" to="gneJ6" priority="-1">
        <lane id="gneE10_0" index="0" speed="13.89" length="179.02" shape="-322.21,496.74 -501.24,496.74"/>
    </edge>
    <edge id="gneE11" from="gneJ6" to="gneJ5" priority="-1">
        <lane id="gneE11_0" index="0" speed="13.89" length="191.54" shape="-515.65,496.74 -707.19,496.74"/>
    </edge>
    <edge id="gneE12" from="gneJ6" to="gneJ10" priority="-1">
        <lane id="gneE12_0" index="0" speed="13.89" length="138.59" shape="-506.85,502.34 -506.94,640.93"/>
    </edge>
    <edge id="gneE13" from="gneJ10" to="gneJ6" priority="-1">
        <lane id="gneE13_0" index="0" speed="13.89" length="138.59" shape="-510.14,640.93 -510.05,502.34"/>
    </edge>
    <edge id="gneE17" from="gneJ7" to="gneJ15" priority="-1">
        <lane id="gneE17_0" index="0" speed="13.89" length="135.48" shape="-313.41,502.34 -313.26,637.82"/>
    </edge>
    <edge id="gneE18" from="gneJ15" to="gneJ7" priority="-1">
        <lane id="gneE18_0" index="0" speed="13.89" length="135.48" shape="-316.46,637.82 -316.61,502.34"/>
    </edge>
    <edge id="gneE20" from="gneJ8" to="gneJ18" priority="-1">
        <lane id="gneE20_0" index="0" speed="13.89" length="133.38" shape="-132.74,502.34 -132.78,635.72"/>
    </edge>
    <edge id="gneE21" from="gneJ18" to="gneJ8" priority="-1">
        <lane id="gneE21_0" index="0" speed="13.89" length="133.38" shape="-135.98,635.72 -135.94,502.34"/>
    </edge>
    <edge id="gneE23" from="gneJ6" to="gneJ20" priority="-1">
        <lane id="gneE23_0" index="0" speed="13.89" length="158.13" shape="-510.03,487.92 -509.62,329.79"/>
    </edge>
    <edge id="gneE24" from="gneJ20" to="gneJ6" priority="-1">
        <lane id="gneE24_0" index="0" speed="13.89" length="158.13" shape="-506.42,329.80 -506.83,487.93"/>
    </edge>
    <edge id="gneE25" from="gneJ7" to="gneJ21" priority="-1">
        <lane id="gneE25_0" index="0" speed="13.89" length="156.55" shape="-316.59,487.92 -316.07,331.37"/>
    </edge>
    <edge id="gneE26" from="gneJ21" to="gneJ7" priority="-1">
        <lane id="gneE26_0" index="0" speed="13.89" length="156.55" shape="-312.87,331.38 -313.39,487.93"/>
    </edge>
    <edge id="gneE27" from="gneJ8" to="gneJ22" priority="-1">
        <lane id="gneE27_0" index="0" speed="13.89" length="157.34" shape="-135.95,487.93 -136.19,330.60"/>
    </edge>
    <edge id="gneE28" from="gneJ22" to="gneJ8" priority="-1">
        <lane id="gneE28_0" index="0" speed="13.89" length="157.34" shape="-132.99,330.59 -132.75,487.93"/>
    </edge>
    <edge id="gneE29" from="gneJ20" to="gneJ23" priority="-1">
        <lane id="gneE29_0" index="0" speed="13.89" length="198.56" shape="-515.21,324.19 -713.77,324.44"/>
    </edge>
    <edge id="gneE30" from="gneJ23" to="gneJ20" priority="-1">
        <lane id="gneE30_0" index="0" speed="13.89" length="198.56" shape="-713.78,321.24 -515.22,320.99"/>
    </edge>
    <edge id="gneE31" from="gneJ20" to="gneJ21" priority="-1">
        <lane id="gneE31_0" index="0" speed="13.89" length="179.12" shape="-500.77,321.04 -321.65,322.53"/>
    </edge>
    <edge id="gneE32" from="gneJ21" to="gneJ20" priority="-1">
        <lane id="gneE32_0" index="0" speed="13.89" length="179.12" shape="-321.68,325.73 -500.80,324.24"/>
    </edge>
    <edge id="gneE33" from="gneJ21" to="gneJ22" priority="-1">
        <lane id="gneE33_0" index="0" speed="13.89" length="165.42" shape="-307.23,322.56 -141.81,321.82"/>
    </edge>
    <edge id="gneE34" from="gneJ22" to="gneJ21" priority="-1">
        <lane id="gneE34_0" index="0" speed="13.89" length="165.42" shape="-141.80,325.02 -307.22,325.76"/>
    </edge>
    <edge id="gneE35" from="gneJ22" to="gneJ24" priority="-1">
        <lane id="gneE35_0" index="0" speed="13.89" length="193.25" shape="-127.38,321.74 65.87,320.52"/>
    </edge>
    <edge id="gneE36" from="gneJ24" to="gneJ22" priority="-1">
        <lane id="gneE36_0" index="0" speed="13.89" length="193.25" shape="65.89,323.72 -127.36,324.94"/>
    </edge>
    <edge id="gneE37" from="gneJ20" to="gneJ25" priority="-1">
        <lane id="gneE37_0" index="0" speed="13.89" length="144.61" shape="-509.62,315.38 -510.05,170.77"/>
    </edge>
    <edge id="gneE38" from="gneJ25" to="gneJ20" priority="-1">
        <lane id="gneE38_0" index="0" speed="13.89" length="144.61" shape="-506.85,170.76 -506.42,315.37"/>
    </edge>
    <edge id="gneE39" from="gneJ21" to="gneJ26" priority="-1">
        <lane id="gneE39_0" index="0" speed="13.89" length="144.86" shape="-316.03,316.97 -315.77,172.11"/>
    </edge>
    <edge id="gneE4" from="gneJ5" to="gneJ6" priority="-1">
        <lane id="gneE4_0" index="0" speed="13.89" length="191.54" shape="-707.19,493.54 -515.65,493.54"/>
    </edge>