<?xml version="1.0" encoding="UTF-8"?>

<!-- generated on 05/09/23 11:56:38 by Eclipse SUMO netedit Version 1.8.0
<configuration xmlns:xsi="http://www.w3.org/2001/XMLSchema-instance" xsi:noNamespaceSchemaLocation="http://sumo.dlr.de/xsd/netconvertConfiguration.xsd">

    <input>
        <sumo-net-file value="D:\veins\sumo-1.8.0\tools\2023-03-03-15-03-00\osm.net.xml"/>
    </input>

    <output>
        <output-file value="D:\veins\sumo-1.8.0\tools\2023-03-03-15-03-00\osm.net.xml"/>
        <output.street-names value="true"/>
    </output>

    <processing>
        <geometry.min-radius.fix.railways value="false"/>
        <geometry.max-grade.fix value="false"/>
        <offset.disable-normalization value="true"/>
        <lefthand value="false"/>
    </processing>

    <junctions>
        <no-turnarounds value="true"/>
        <junctions.corner-detail value="5"/>
        <junctions.limit-turn-speed value="5.5"/>
        <rectangular-lane-cut value="false"/>
    </junctions>

    <pedestrian>
        <walkingareas value="false"/>
    </pedestrian>

    <report>
        <aggregate-warnings value="5"/>
    </report>

</configuration>
-->

<net version="1.6" junctionCornerDetail="5" limitTurnSpeed="5.50" xmlns:xsi="http://www.w3.org/2001/XMLSchema-instance" xsi:noNamespaceSchemaLocation="http://sumo.dlr.de/xsd/net_file.xsd">

    <location netOffset="-288314.88,-5077633.23" convBoundary="0.00,0.00,9158.25,1639.20" origBoundary="126.274536,45.784810,126.446902,45.841769" projParameter="+proj=utm +zone=52 +ellps=WGS84 +datum=WGS84 +units=m +no_defs"/>

    <type id="highway.bridleway" priority="1" numLanes="1" speed="2.78" allow="pedestrian" oneway="1" width="2.00"/>
    <type id="highway.bus_guideway" priority="1" numLanes="1" speed="27.78" allow="bus" oneway="1"/>
    <type id="highway.cycleway" priority="1" numLanes="1" speed="8.33" allow="bicycle" oneway="1" width="1.00"/>
    <type id="highway.footway" priority="1" numLanes="1" speed="2.78" allow="pedestrian" oneway="1" width="2.00"/>
    <type id="highway.ford" priority="1" numLanes="1" speed="2.78" allow="army" oneway="1"/>
    <type id="highway.living_street" priority="2" numLanes="1" speed="2.78" disallow="tram rail_urban rail rail_electric rail_fast ship" oneway="1"/>
    <type id="highway.motorway" priority="14" numLanes="2" speed="39.44" allow="private emergency authority army vip passenger hov taxi bus coach delivery truck trailer motorcycle evehicle custom1 custom2" oneway="1"/>
    <type id="highway.motorway_link" priority="9" numLanes="1" speed="22.22" allow="private emergency authority army vip passenger hov taxi bus coach delivery truck trailer motorcycle evehicle custom1 custom2" oneway="1"/>
    <type id="highway.path" priority="1" numLanes="1" speed="2.78" allow="pedestrian bicycle" oneway="1" width="2.00"/>
    <type id="highway.pedestrian" priority="1" numLanes="1" speed="2.78" allow="pedestrian" oneway="1" width="2.00"/>
    <type id="highway.primary" priority="12" numLanes="2" speed="27.78" disallow="tram rail_urban rail rail_electric rail_fast ship" oneway="1"/>
    <type id="highway.primary_link" priority="7" numLanes="1" speed="22.22" disallow="tram rail_urban rail rail_electric rail_fast ship" oneway="1"/>
    <type id="highway.raceway" priority="15" numLanes="2" speed="83.33" allow="vip" oneway="1"/>
    <type id="highway.residential" priority="3" numLanes="1" speed="13.89" disallow="tram rail_urban rail rail_electric rail_fast ship" oneway="1"/>
    <type id="highway.secondary" priority="11" numLanes="1" speed="27.78" disallow="tram rail_urban rail rail_electric rail_fast ship" oneway="1"/>
    <type id="highway.secondary_link" priority="6" numLanes="1" speed="22.22" disallow="tram rail_urban rail rail_electric rail_fast ship" oneway="1"/>
    <type id="highway.service" priority="1" numLanes="1" speed="5.56" allow="pedestrian delivery bicycle" oneway="1"/>
    <type id="highway.stairs" priority="1" numLanes="1" speed="1.39" allow="pedestrian" oneway="1" width="2.00"/>
    <type id="highway.step" priority="1" numLanes="1" speed="1.39" allow="pedestrian" oneway="1" width="2.00"/>
    <type id="highway.steps" priority="1" numLanes="1" speed="1.39" allow="pedestrian" oneway="1" width="2.00"/>
    <type id="highway.tertiary" priority="10" numLanes="1" speed="22.22" disallow="tram rail_urban rail rail_electric rail_fast ship" oneway="1"/>
    <type id="highway.tertiary_link" priority="5" numLanes="1" speed="22.22" disallow="tram rail_urban rail rail_electric rail_fast ship" oneway="1"/>
    <type id="highway.track" priority="1" numLanes="1" speed="5.56" allow="pedestrian motorcycle moped bicycle" oneway="1"/>
    <type id="highway.trunk" priority="13" numLanes="2" speed="27.78" disallow="pedestrian bicycle tram rail_urban rail rail_electric rail_fast ship" oneway="1"/>
    <type id="highway.trunk_link" priority="8" numLanes="1" speed="22.22" disallow="pedestrian bicycle tram rail_urban rail rail_electric rail_fast ship" oneway="1"/>
    <type id="highway.unclassified" priority="4" numLanes="1" speed="13.89" disallow="tram rail_urban rail rail_electric rail_fast ship" oneway="1"/>
    <type id="highway.unsurfaced" priority="1" numLanes="1" speed="8.33" disallow="tram rail_urban rail rail_electric rail_fast ship" oneway="1"/>
    <type id="railway.highspeed" priority="21" numLanes="1" speed="69.44" allow="rail_fast" oneway="1"/>
    <type id="railway.light_rail" priority="19" numLanes="1" speed="27.78" allow="rail_urban" oneway="1"/>
    <type id="railway.preserved" priority="16" numLanes="1" speed="27.78" allow="rail" oneway="1"/>
    <type id="railway.rail" priority="20" numLanes="1" speed="44.44" allow="rail" oneway="1"/>
    <type id="railway.subway" priority="18" numLanes="1" speed="27.78" allow="rail_urban" oneway="1"/>
    <type id="railway.tram" priority="17" numLanes="1" speed="13.89" allow="tram" oneway="1"/>

    <edge id=":10075081591_0" function="internal">
        <lane id=":10075081591_0_0" index="0" allow="private emergency authority army vip passenger hov taxi bus coach delivery truck trailer motorcycle evehicle custom1 custom2" speed="39.44" length="2.82" shape="4669.80,867.66 4667.12,868.27"/>
        <lane id=":10075081591_0_1" index="1" allow="private emergency authority army vip passenger hov taxi bus coach delivery truck trailer motorcycle evehicle custom1 custom2" speed="39.44" length="2.82" shape="4669.16,864.52 4666.34,865.16"/>
    </edge>
    <edge id=":10075081591_2" function="internal">
        <lane id=":10075081591_2_0" index="0" allow="private emergency authority army vip passenger hov taxi bus coach delivery truck trailer motorcycle evehicle custom1 custom2" speed="39.44" length="3.09" shape="4668.51,861.39 4665.55,861.99"/>
        <lane id=":10075081591_2_1" index="1" allow="private emergency authority army vip passenger hov taxi bus coach delivery truck trailer motorcycle evehicle custom1 custom2" speed="39.44" length="3.09" shape="4667.87,858.25 4664.77,858.89"/>
    </edge>
    <edge id=":10075091932_0" function="internal">
        <lane id=":10075091932_0_0" index="0" allow="private emergency authority army vip passenger hov taxi bus coach delivery truck trailer motorcycle evehicle custom1 custom2" speed="39.44" length="3.00" shape="4898.31,791.48 4901.25,790.93"/>
        <lane id=":10075091932_0_1" index="1" allow="private emergency authority army vip passenger hov taxi bus coach delivery truck trailer motorcycle evehicle custom1 custom2" speed="39.44" length="3.00" shape="4898.95,794.62 4901.90,794.06"/>
    </edge>
    <edge id=":10075091932_2" function="internal">
        <lane id=":10075091932_2_0" index="0" allow="private emergency authority army vip passenger hov taxi bus coach delivery truck trailer motorcycle evehicle custom1 custom2" speed="39.44" length="3.00" shape="4899.61,797.80 4902.54,797.20"/>
        <lane id=":10075091932_2_1" index="1" allow="private emergency authority army vip passenger hov taxi bus coach delivery truck trailer motorcycle evehicle custom1 custom2" speed="39.44" length="3.00" shape="4900.25,800.93 4903.19,800.33"/>
    </edge>
    <edge id=":10075091933_0" function="internal">
        <lane id=":10075091933_0_0" index="0" allow="private emergency authority army vip passenger hov taxi bus coach delivery truck trailer motorcycle evehicle custom1 custom2" speed="39.44" length="3.12" shape="4327.56,910.43 4330.62,909.71"/>
        <lane id=":10075091933_0_1" index="1" allow="private emergency authority army vip passenger hov taxi bus coach delivery truck trailer motorcycle evehicle custom1 custom2" speed="39.44" length="3.12" shape="4328.33,913.54 4331.34,912.82"/>
    </edge>
    <edge id=":10075091933_2" function="internal">
        <lane id=":10075091933_2_0" index="0" allow="private emergency authority army vip passenger hov taxi bus coach delivery truck trailer motorcycle evehicle custom1 custom2" speed="39.44" length="3.04" shape="4329.10,916.65 4332.07,915.92"/>
        <lane id=":10075091933_2_1" index="1" allow="private emergency authority army vip passenger hov taxi bus coach delivery truck trailer motorcycle evehicle custom1 custom2" speed="39.44" length="3.04" shape="4329.87,919.75 4332.80,919.03"/>
    </edge>
    <edge id=":10075091960_0" function="internal">
        <lane id=":10075091960_0_0" index="0" allow="private emergency authority army vip passenger hov taxi bus coach delivery truck trailer motorcycle evehicle custom1 custom2" speed="39.44" length="3.67" shape="4301.44,1169.06 4301.41,1170.10 4301.40,1170.81 4301.43,1171.53 4301.49,1172.56"/>
        <lane id=":10075091960_0_1" index="1" allow="private emergency authority army vip passenger hov taxi bus coach delivery truck trailer motorcycle evehicle custom1 custom2" speed="39.44" length="3.67" shape="4298.24,1168.97 4298.21,1170.10 4298.20,1170.88 4298.23,1171.66 4298.30,1172.79"/>
    </edge>
    <edge id=":10075091960_2" function="internal">
        <lane id=":10075091960_2_0" index="0" allow="private emergency authority army vip passenger hov taxi bus coach delivery truck trailer motorcycle evehicle custom1 custom2" speed="39.44" length="3.03" shape="4307.71,1169.25 4307.88,1172.11"/>
        <lane id=":10075091960_2_1" index="1" allow="private emergency authority army vip passenger hov taxi bus coach delivery truck trailer motorcycle evehicle custom1 custom2" speed="39.44" length="3.03" shape="4304.51,1169.15 4304.69,1172.33"/>
    </edge>
    <edge id=":10075091961_0" function="internal">
        <lane id=":10075091961_0_0" index="0" allow="private emergency authority army vip passenger hov taxi bus coach delivery truck trailer motorcycle evehicle custom1 custom2" speed="39.44" length="3.14" shape="4280.67,1181.86 4280.78,1178.80"/>
        <lane id=":10075091961_0_1" index="1" allow="private emergency authority army vip passenger hov taxi bus coach delivery truck trailer motorcycle evehicle custom1 custom2" speed="39.44" length="3.14" shape="4283.87,1182.05 4283.98,1178.84"/>
    </edge>
    <edge id=":10075091961_2" function="internal">
        <lane id=":10075091961_2_0" index="0" allow="private emergency authority army vip passenger hov taxi bus coach delivery truck trailer motorcycle evehicle custom1 custom2" speed="39.44" length="2.93" shape="4287.06,1182.23 4287.28,1179.27"/>
        <lane id=":10075091961_2_1" index="1" allow="private emergency authority army vip passenger hov taxi bus coach delivery truck trailer motorcycle evehicle custom1 custom2" speed="39.44" length="2.93" shape="4290.26,1182.42 4290.47,1179.53"/>
    </edge>
    <edge id=":10075091974_0" function="internal">
        <lane id=":10075091974_0_0" index="0" allow="private emergency authority army vip passenger hov taxi bus coach delivery truck trailer motorcycle evehicle custom1 custom2" speed="39.44" length="3.00" shape="4020.46,1002.27 4017.49,1002.72"/>
        <lane id=":10075091974_0_1" index="1" allow="private emergency authority army vip passenger hov taxi bus coach delivery truck trailer motorcycle evehicle custom1 custom2" speed="39.44" length="3.00" shape="4019.95,999.11 4016.98,999.56"/>
    </edge>
    <edge id=":10075091974_2" function="internal">
        <lane id=":10075091974_2_0" index="0" allow="private emergency authority army vip passenger hov taxi bus coach delivery truck trailer motorcycle evehicle custom1 custom2" speed="39.44" length="3.00" shape="4019.44,995.92 4016.48,996.40"/>
        <lane id=":10075091974_2_1" index="1" allow="private emergency authority army vip passenger hov taxi bus coach delivery truck trailer motorcycle evehicle custom1 custom2" speed="39.44" length="3.00" shape="4018.94,992.76 4015.97,993.24"/>
    </edge>
    <edge id=":1016463159-AddedOffRampNode_0" function="internal">
        <lane id=":1016463159-AddedOffRampNode_0_0" index="0" allow="private emergency authority army vip passenger hov taxi bus coach delivery truck trailer motorcycle evehicle custom1 custom2" speed="39.44" length="8.92" shape="4769.00,840.70 4766.56,842.22 4765.73,844.64 4764.89,847.06 4762.45,848.59"/>
        <lane id=":1016463159-AddedOffRampNode_0_1" index="1" allow="private emergency authority army vip passenger hov taxi bus coach delivery truck trailer motorcycle evehicle custom1 custom2" speed="39.44" length="8.92" shape="4769.00,840.70 4766.69,841.69 4765.40,843.08 4764.12,844.47 4761.81,845.45"/>
        <lane id=":1016463159-AddedOffRampNode_0_2" index="2" allow="private emergency authority army vip passenger hov taxi bus coach delivery truck trailer motorcycle evehicle custom1 custom2" speed="39.44" length="8.92" shape="4769.00,840.70 4761.16,842.32"/>
        <lane id=":1016463159-AddedOffRampNode_0_3" index="3" allow="private emergency authority army vip passenger hov taxi bus coach delivery truck trailer motorcycle evehicle custom1 custom2" speed="39.44" length="8.92" shape="4768.35,837.57 4760.52,839.18"/>
    </edge>
    <edge id=":1100853210#2-AddedOnRampNode_0" function="internal">
        <lane id=":1100853210#2-AddedOnRampNode_0_0" index="0" allow="private emergency authority army vip passenger hov taxi bus coach delivery truck trailer motorcycle evehicle custom1 custom2" speed="39.44" length="8.00" shape="3923.05,1010.84 3915.13,1011.93"/>
        <lane id=":1100853210#2-AddedOnRampNode_0_1" index="1" allow="private emergency authority army vip passenger hov taxi bus coach delivery truck trailer motorcycle evehicle custom1 custom2" speed="39.44" length="8.00" shape="3922.62,1007.67 3914.69,1008.76"/>
    </edge>
    <edge id=":1100853212#2-AddedOnRampNode_0" function="internal">
        <lane id=":1100853212#2-AddedOnRampNode_0_0" index="0" allow="private emergency authority army vip passenger hov taxi bus coach delivery truck trailer motorcycle evehicle custom1 custom2" speed="39.44" length="8.00" shape="4995.12,778.14 5002.95,776.53"/>
        <lane id=":1100853212#2-AddedOnRampNode_0_1" index="1" allow="private emergency authority army vip passenger hov taxi bus coach delivery truck trailer motorcycle evehicle custom1 custom2" speed="39.44" length="8.00" shape="4995.76,781.28 5003.60,779.66"/>
    </edge>
    <edge id=":1100853216-AddedOffRampNode_0" function="internal">
        <lane id=":1100853216-AddedOffRampNode_0_0" index="0" allow="private emergency authority army vip passenger hov taxi bus coach delivery truck trailer motorcycle evehicle custom1 custom2" speed="39.44" length="8.92" shape="4229.35,939.94 4231.78,938.40 4232.60,935.98 4233.42,933.55 4235.84,932.01"/>
        <lane id=":1100853216-AddedOffRampNode_0_1" index="1" allow="private emergency authority army vip passenger hov taxi bus coach delivery truck trailer motorcycle evehicle custom1 custom2" speed="39.44" length="8.92" shape="4229.35,939.94 4231.66,938.94 4232.93,937.54 4234.21,936.14 4236.51,935.14"/>
        <lane id=":1100853216-AddedOffRampNode_0_2" index="2" allow="private emergency authority army vip passenger hov taxi bus coach delivery truck trailer motorcycle evehicle custom1 custom2" speed="39.44" length="8.92" shape="4229.35,939.94 4237.18,938.27"/>
        <lane id=":1100853216-AddedOffRampNode_0_3" index="3" allow="private emergency authority army vip passenger hov taxi bus coach delivery truck trailer motorcycle evehicle custom1 custom2" speed="39.44" length="8.92" shape="4230.02,943.07 4237.84,941.40"/>
    </edge>
    <edge id=":9237191173_0" function="internal">
        <lane id=":9237191173_0_0" index="0" disallow="tram rail_urban rail rail_electric rail_fast ship" speed="3.65" length="4.67" shape="3894.28,1639.19 3893.49,1640.40 3892.69,1640.80 3891.89,1640.40 3891.08,1639.21"/>
    </edge>
    <edge id=":9237191176_0" function="internal">
        <lane id=":9237191176_0_0" index="0" disallow="tram rail_urban rail rail_electric rail_fast ship" speed="3.65" length="4.67" shape="3894.88,-0.01 3895.69,-1.21 3896.49,-1.60 3897.29,-1.19 3898.08,0.01"/>
    </edge>

    <edge id="-1000719831" from="9237191176" to="9237191173" priority="4" type="highway.unclassified" shape="3896.48,0.00 3889.54,961.74 3889.26,1059.30 3892.68,1639.20">
        <lane id="-1000719831_0" index="0" disallow="tram rail_urban rail rail_electric rail_fast ship" speed="13.89" length="1639.21" shape="3898.08,0.01 3891.14,961.75 3890.86,1059.30 3894.28,1639.19">
            <param key="origId" value="1000719831 1100853209 1100853208"/>
        </lane>
    </edge>
    <edge id="1016463159" from="10069144918" to="1016463159-AddedOffRampNode" name="哈肇高速" priority="14" type="highway.motorway" spreadType="center" shape="9158.25,445.79 9099.10,454.43 8951.14,473.41 8876.96,481.97 8808.35,487.71 8671.16,497.02 8599.44,500.73 8456.00,505.74 8098.16,510.82 7048.40,502.14 6804.99,504.70 6744.23,506.13 6622.71,511.21 6556.50,515.22 6490.34,520.11 6424.24,525.88 6358.23,532.52 6292.31,540.03 6226.67,548.40 5185.10,753.42 4764.76,839.94">
        <lane id="1016463159_0" index="0" allow="private emergency authority army vip passenger hov taxi bus coach delivery truck trailer motorcycle evehicle custom1 custom2" speed="39.44" length="4423.41" shape="9158.48,447.37 9099.32,456.02 8951.33,475.00 8877.12,483.56 8808.47,489.31 8671.26,498.62 8599.51,502.33 8456.04,507.34 8098.16,512.42 7048.40,503.74 6805.02,506.30 6744.28,507.73 6622.79,512.81 6556.61,516.82 6490.47,521.70 6424.39,527.47 6358.40,534.11 6292.50,541.62 6226.93,549.98 5185.42,754.99 4769.00,840.70">
            <param key="origId" value="1016463159 1100853210"/>
        </lane>
        <lane id="1016463159_1" index="1" allow="private emergency authority army vip passenger hov taxi bus coach delivery truck trailer motorcycle evehicle custom1 custom2" speed="39.44" length="4423.41" shape="9158.02,444.21 9098.88,452.84 8950.95,471.82 8876.80,480.38 8808.23,486.11 8671.06,495.42 8599.37,499.13 8455.96,504.14 8098.16,509.22 7048.40,500.54 6804.96,503.10 6744.18,504.53 6622.63,509.61 6556.39,513.62 6490.21,518.52 6424.09,524.29 6358.06,530.93 6292.12,538.44 6226.41,546.82 5184.78,751.85 4768.35,837.57">
            <param key="origId" value="1016463159 1100853210"/>
        </lane>
        <param key="ref" value="S22"/>
    </edge>
    <edge id="1016463159-AddedOffRampEdge" from="1016463159-AddedOffRampNode" to="10075081591" name="哈肇高速" priority="14" type="highway.motorway" spreadType="center" shape="4765.40,843.08 4667.45,863.24">
        <lane id="1016463159-AddedOffRampEdge_0" index="0" allow="private emergency authority army vip passenger hov taxi bus coach delivery truck trailer motorcycle evehicle custom1 custom2" speed="39.44" length="94.59" shape="4762.45,848.59 4669.80,867.66">
            <param key="origId" value="1016463159 1100853210"/>
        </lane>
        <lane id="1016463159-AddedOffRampEdge_1" index="1" allow="private emergency authority army vip passenger hov taxi bus coach delivery truck trailer motorcycle evehicle custom1 custom2" speed="39.44" length="94.59" shape="4761.81,845.45 4669.16,864.52">
            <param key="origId" value="1016463159 1100853210"/>
        </lane>
        <lane id="1016463159-AddedOffRampEdge_2" index="2" allow="private emergency authority army vip passenger hov taxi bus coach delivery truck trailer motorcycle evehicle custom1 custom2" speed="39.44" length="94.59" shape="4761.16,842.32 4668.51,861.39">
            <param key="origId" value="1016463159 1100853210"/>
        </lane>
        <lane id="1016463159-AddedOffRampEdge_3" index="3" allow="private emergency authority army vip passenger hov taxi bus coach delivery truck trailer motorcycle evehicle custom1 custom2" speed="39.44" length="94.59" shape="4760.52,839.18 4667.87,858.25">
            <param key="origId" value="1016463159 1100853210"/>
        </lane>
        <param key="ref" value="S22"/>
    </edge>
    <edge id="1100853200#0" from="10075081591" to="10075091960" priority="14" type="highway.motorway" spreadType="center" shape="4668.10,866.37 4517.61,904.10 4454.48,925.74 4418.46,945.22 4387.01,968.96 4363.79,993.05 4342.05,1023.40 4327.25,1053.51 4311.63,1096.88 4304.60,1132.41 4306.17,1170.70">
        <lane id="1100853200#0_0" index="0" allow="private emergency authority army vip passenger hov taxi bus coach delivery truck trailer motorcycle evehicle custom1 custom2" speed="39.44" length="524.30" shape="4667.12,868.27 4518.06,905.64 4455.12,927.21 4419.33,946.57 4388.07,970.16 4365.02,994.08 4343.43,1024.22 4328.73,1054.14 4313.18,1097.31 4306.21,1132.53 4307.71,1169.25">
            <param key="origId" value="1100853200"/>
        </lane>
        <lane id="1100853200#0_1" index="1" allow="private emergency authority army vip passenger hov taxi bus coach delivery truck trailer motorcycle evehicle custom1 custom2" speed="39.44" length="524.30" shape="4666.34,865.16 4517.16,902.56 4453.84,924.27 4417.59,943.87 4385.95,967.76 4362.56,992.02 4340.67,1022.58 4325.77,1052.88 4310.08,1096.45 4302.99,1132.29 4304.51,1169.15">
            <param key="origId" value="1100853200"/>
        </lane>
    </edge>
    <edge id="1100853200#1-AddedOnRampEdge" from="10075091960" to="1100853200#1-AddedOnRampNode" priority="14" type="highway.motorway" spreadType="center" shape="4302.98,1170.93 4304.95,1198.35 4311.75,1250.44 4312.87,1270.44">
        <lane id="1100853200#1-AddedOnRampEdge_0" index="0" allow="private emergency authority army vip passenger hov taxi bus coach delivery truck trailer motorcycle evehicle custom1 custom2" speed="39.44" length="98.53" acceleration="1" shape="4307.88,1172.11 4309.73,1197.87 4316.53,1249.99 4317.66,1270.17">
            <param key="origId" value="1100853200"/>
        </lane>
        <lane id="1100853200#1-AddedOnRampEdge_1" index="1" allow="private emergency authority army vip passenger hov taxi bus coach delivery truck trailer motorcycle evehicle custom1 custom2" speed="39.44" length="98.53" acceleration="1" shape="4304.69,1172.33 4306.54,1198.19 4313.34,1250.29 4314.47,1270.35">
            <param key="origId" value="1100853200"/>
        </lane>
        <lane id="1100853200#1-AddedOnRampEdge_2" index="2" allow="private emergency authority army vip passenger hov taxi bus coach delivery truck trailer motorcycle evehicle custom1 custom2" speed="39.44" length="98.53" shape="4301.49,1172.56 4303.36,1198.51 4310.16,1250.59 4311.27,1270.53">
            <param key="origId" value="1100853200"/>
        </lane>
        <lane id="1100853200#1-AddedOnRampEdge_3" index="3" allow="private emergency authority army vip passenger hov taxi bus coach delivery truck trailer motorcycle evehicle custom1 custom2" speed="39.44" length="98.53" shape="4298.30,1172.79 4300.17,1198.83 4306.97,1250.89 4308.08,1270.71">
            <param key="origId" value="1100853200"/>
        </lane>
    </edge>
    <edge id="1100853202" from="10075091933" to="10075091960" priority="14" type="highway.motorway" spreadType="center" shape="4329.42,911.63 4445.51,884.46 4502.43,866.17 4532.95,852.55 4550.13,836.85 4561.04,822.62 4567.52,808.54 4570.70,790.16 4569.52,773.82 4564.42,753.82 4555.17,741.53 4543.44,731.20 4528.05,724.78 4507.02,719.81 4488.69,719.80 4466.02,722.45 4434.58,727.91 4408.95,736.33 4383.45,749.16 4366.84,762.94 4346.63,782.52 4334.59,800.58 4324.55,821.70 4315.42,850.99 4313.61,872.48 4305.75,1015.79 4302.03,1093.42 4299.78,1171.16">
        <lane id="1100853202_0" index="0" allow="private emergency authority army vip passenger hov taxi bus coach delivery truck trailer motorcycle evehicle custom1 custom2" speed="39.44" length="965.03" shape="4330.62,909.71 4445.08,882.92 4501.86,864.67 4532.06,851.19 4548.95,835.76 4559.66,821.79 4565.98,808.06 4569.09,790.08 4567.93,774.08 4562.95,754.53 4553.99,742.62 4542.58,732.58 4527.55,726.31 4506.83,721.41 4488.78,721.40 4466.25,724.03 4434.97,729.47 4409.56,737.81 4384.33,750.51 4367.91,764.13 4347.87,783.55 4335.99,801.37 4326.04,822.28 4317.00,851.30 4315.21,872.59 4307.35,1015.87 4303.63,1093.48 4301.44,1169.06">
            <param key="origId" value="1100853202 1100853206 1100853204"/>
        </lane>
        <lane id="1100853202_1" index="1" allow="private emergency authority army vip passenger hov taxi bus coach delivery truck trailer motorcycle evehicle custom1 custom2" speed="39.44" length="965.03" shape="4331.34,912.82 4445.94,886.00 4503.00,867.67 4533.84,853.91 4551.31,837.94 4562.42,823.45 4569.06,809.02 4572.31,790.24 4571.11,773.56 4565.89,753.11 4556.35,740.44 4544.30,729.82 4528.55,723.25 4507.21,718.21 4488.60,718.20 4465.79,720.87 4434.19,726.35 4408.34,734.85 4382.57,747.81 4365.77,761.75 4345.39,781.49 4333.19,799.79 4323.06,821.12 4313.84,850.68 4312.01,872.37 4304.15,1015.71 4300.43,1093.36 4298.24,1168.97">
            <param key="origId" value="1100853202 1100853206 1100853204"/>
        </lane>
    </edge>
    <edge id="1100853203#0" from="10075081604" to="10075091961" priority="14" type="highway.motorway" spreadType="center" shape="4275.31,1277.93 4278.98,1236.10 4284.21,1203.84 4285.55,1180.68">
        <lane id="1100853203#0_0" index="0" allow="private emergency authority army vip passenger hov taxi bus coach delivery truck trailer motorcycle evehicle custom1 custom2" speed="39.44" length="96.41" shape="4270.53,1277.51 4274.21,1235.51 4279.43,1203.32 4280.67,1181.86">
            <param key="origId" value="1100853203"/>
        </lane>
        <lane id="1100853203#0_1" index="1" allow="private emergency authority army vip passenger hov taxi bus coach delivery truck trailer motorcycle evehicle custom1 custom2" speed="39.44" length="96.41" shape="4273.72,1277.79 4277.39,1235.90 4282.62,1203.67 4283.87,1182.05">
            <param key="origId" value="1100853203"/>
        </lane>
        <lane id="1100853203#0_2" index="2" allow="private emergency authority army vip passenger hov taxi bus coach delivery truck trailer motorcycle evehicle custom1 custom2" speed="39.44" length="96.41" shape="4276.90,1278.07 4280.57,1236.30 4285.80,1204.01 4287.06,1182.23">
            <param key="origId" value="1100853203"/>
        </lane>
        <lane id="1100853203#0_3" index="3" allow="private emergency authority army vip passenger hov taxi bus coach delivery truck trailer motorcycle evehicle custom1 custom2" speed="39.44" length="96.41" shape="4280.09,1278.35 4283.75,1236.69 4288.99,1204.36 4290.26,1182.42">
            <param key="origId" value="1100853203"/>
        </lane>
    </edge>
    <edge id="1100853203#1" from="10075091961" to="10075091932" priority="14" type="highway.motorway" spreadType="center" shape="4288.75,1180.86 4290.39,1161.23 4291.57,1120.86 4293.49,1064.72 4295.68,1016.75 4297.42,974.47 4301.88,899.97 4305.33,851.96 4310.22,827.85 4320.72,801.66 4336.36,777.83 4357.12,755.71 4382.47,738.47 4416.68,721.58 4446.79,714.90 4481.44,711.21 4513.74,712.66 4541.21,721.20 4572.09,737.18 4598.57,753.94 4625.71,771.31 4651.51,786.83 4682.31,800.29 4720.54,809.10 4763.54,809.56 4805.88,808.78 4900.12,792.80">
        <lane id="1100853203#1_0" index="0" allow="private emergency authority army vip passenger hov taxi bus coach delivery truck trailer motorcycle evehicle custom1 custom2" speed="39.44" length="1015.85" shape="4287.28,1179.27 4288.79,1161.14 4289.97,1120.81 4291.89,1064.66 4294.08,1016.68 4295.82,974.39 4300.28,899.86 4303.74,851.74 4308.68,827.39 4319.29,800.92 4335.10,776.84 4356.07,754.49 4381.66,737.08 4416.14,720.06 4446.53,713.32 4481.39,709.61 4514.02,711.07 4541.82,719.71 4572.89,735.79 4599.43,752.59 4626.55,769.95 4652.25,785.41 4682.81,798.76 4720.73,807.50 4763.53,807.96 4805.73,807.18 4898.31,791.48">
            <param key="origId" value="1100853203 1100853205 1100853201"/>
        </lane>
        <lane id="1100853203#1_1" index="1" allow="private emergency authority army vip passenger hov taxi bus coach delivery truck trailer motorcycle evehicle custom1 custom2" speed="39.44" length="1015.85" shape="4290.47,1179.53 4291.99,1161.32 4293.17,1120.91 4295.09,1064.78 4297.28,1016.82 4299.02,974.55 4303.48,900.08 4306.92,852.18 4311.76,828.31 4322.15,802.40 4337.62,778.82 4358.17,756.93 4383.28,739.86 4417.22,723.10 4447.05,716.48 4481.49,712.81 4513.46,714.25 4540.60,722.69 4571.29,738.57 4597.71,755.29 4624.87,772.67 4650.77,788.25 4681.81,801.82 4720.35,810.70 4763.55,811.16 4806.03,810.38 4898.95,794.62">
            <param key="origId" value="1100853203 1100853205 1100853201"/>
        </lane>
    </edge>
    <edge id="1100853207" from="10075091961" to="10075091974" priority="14" type="highway.motorway" spreadType="center" shape="4282.36,1180.49 4283.08,1131.87 4277.80,1106.21 4269.43,1082.54 4262.01,1068.92 4249.96,1048.54 4238.14,1035.70 4222.48,1021.09 4205.05,1010.34 4186.34,998.99 4166.45,990.20 4144.85,987.14 4122.07,986.65 4018.71,1000.90">