<?xml version="1.0" encoding="UTF-8"?>

<!-- generated on 2023-03-04 03:11:49 by Eclipse SUMO netconvert Version 1.10.0
<configuration xmlns:xsi="http://www.w3.org/2001/XMLSchema-instance" xsi:noNamespaceSchemaLocation="http://sumo.dlr.de/xsd/netconvertConfiguration.xsd">

    <input>
        <type-files value="D:\veins\Eclipse\Sumo\data\typemap\osmNetconvert.typ.xml"/>
        <osm-files value="osm_bbox.osm.xml"/>
    </input>

    <output>
        <output-file value="osm.net.xml"/>
        <output.street-names value="true"/>
        <output.original-names value="true"/>
    </output>

    <projection>
        <proj.utm value="true"/>
    </projection>

    <processing>
        <geometry.remove value="true"/>
        <roundabouts.guess value="true"/>
    </processing>

    <tls_building>
        <tls.discard-simple value="true"/>
        <tls.join value="true"/>
        <tls.guess-signals value="true"/>
        <tls.default-type value="actuated"/>
    </tls_building>

    <ramp_guessing>
        <ramps.guess value="true"/>
    </ramp_guessing>

    <junctions>
        <junctions.join value="true"/>
        <junctions.corner-detail value="5"/>
    </junctions>

    <report>
        <verbose value="true"/>
        <aggregate-warnings value="5"/>
    </report>

</configuration>
-->

<net version="1.9" junctionCornerDetail="5" limitTurnSpeed="5.50" xmlns:xsi="http://www.w3.org/2001/XMLSchema-instance" xsi:noNamespaceSchemaLocation="http://sumo.dlr.de/xsd/net_file.xsd">

    <location netOffset="-355567.41,-5813433.15" convBoundary="0.00,0.00,9116.95,10046.92" origBoundary="12.871450,52.453701,13.056674,52.568374" projParameter="+proj=utm +zone=33 +ellps=WGS84 +datum=WGS84 +units=m +no_defs"/>

    <type id="highway.bridleway" priority="1" numLanes="1" speed="2.78" allow="pedestrian" oneway="1" width="2.00"/>
    <type id="highway.bus_guideway" priority="1" numLanes="1" speed="27.78" allow="bus" oneway="1"/>
    <type id="highway.cycleway" priority="1" numLanes="1" speed="8.33" allow="bicycle" oneway="0" width="1.00"/>
    <type id="highway.footway" priority="1" numLanes="1" speed="2.78" allow="pedestrian" oneway="1" width="2.00"/>
    <type id="highway.ford" priority="1" numLanes="1" speed="2.78" allow="army" oneway="0"/>
    <type id="highway.living_street" priority="2" numLanes="1" speed="2.78" disallow="tram rail_urban rail rail_electric rail_fast ship" oneway="0"/>
    <type id="highway.motorway" priority="14" numLanes="2" speed="39.44" allow="private emergency authority army vip passenger hov taxi bus coach delivery truck trailer motorcycle evehicle custom1 custom2" oneway="1"/>
    <type id="highway.motorway_link" priority="9" numLanes="1" speed="22.22" allow="private emergency authority army vip passenger hov taxi bus coach delivery truck trailer motorcycle evehicle custom1 custom2" oneway="1"/>
    <type id="highway.path" priority="1" numLanes="1" speed="2.78" allow="pedestrian bicycle" oneway="0" width="2.00"/>
    <type id="highway.pedestrian" priority="1" numLanes="1" speed="2.78" allow="pedestrian" oneway="1" width="2.00"/>
    <type id="highway.primary" priority="12" numLanes="2" speed="27.78" disallow="tram rail_urban rail rail_electric rail_fast ship" oneway="0"/>
    <type id="highway.primary_link" priority="7" numLanes="1" speed="22.22" disallow="tram rail_urban rail rail_electric rail_fast ship" oneway="0"/>
    <type id="highway.raceway" priority="15" numLanes="2" speed="83.33" allow="vip" oneway="0"/>
    <type id="highway.residential" priority="3" numLanes="1" speed="13.89" disallow="tram rail_urban rail rail_electric rail_fast ship" oneway="0"/>
    <type id="highway.secondary" priority="11" numLanes="1" speed="27.78" disallow="tram rail_urban rail rail_electric rail_fast ship" oneway="0"/>
    <type id="highway.secondary_link" priority="6" numLanes="1" speed="22.22" disallow="tram rail_urban rail rail_electric rail_fast ship" oneway="0"/>
    <type id="highway.service" priority="1" numLanes="1" speed="5.56" allow="pedestrian delivery bicycle" oneway="0"/>
    <type id="highway.stairs" priority="1" numLanes="1" speed="1.39" allow="pedestrian" oneway="1" width="2.00"/>
    <type id="highway.step" priority="1" numLanes="1" speed="1.39" allow="pedestrian" oneway="1" width="2.00"/>
    <type id="highway.steps" priority="1" numLanes="1" speed="1.39" allow="pedestrian" oneway="1" width="2.00"/>
    <type id="highway.tertiary" priority="10" numLanes="1" speed="22.22" disallow="tram rail_urban rail rail_electric rail_fast ship" oneway="0"/>
    <type id="highway.tertiary_link" priority="5" numLanes="1" speed="22.22" disallow="tram rail_urban rail rail_electric rail_fast ship" oneway="0"/>
    <type id="highway.track" priority="1" numLanes="1" speed="5.56" allow="pedestrian motorcycle moped bicycle" oneway="0"/>
    <type id="highway.trunk" priority="13" numLanes="2" speed="27.78" disallow="pedestrian bicycle tram rail_urban rail rail_electric rail_fast ship" oneway="0"/>
    <type id="highway.trunk_link" priority="8" numLanes="1" speed="22.22" disallow="pedestrian bicycle tram rail_urban rail rail_electric rail_fast ship" oneway="0"/>
    <type id="highway.unclassified" priority="4" numLanes="1" speed="13.89" disallow="tram rail_urban rail rail_electric rail_fast ship" oneway="0"/>
    <type id="highway.unsurfaced" priority="1" numLanes="1" speed="8.33" disallow="tram rail_urban rail rail_electric rail_fast ship" oneway="0"/>
    <type id="railway.highspeed" priority="21" numLanes="1" speed="69.44" allow="rail_fast" oneway="1"/>
    <type id="railway.light_rail" priority="19" numLanes="1" speed="27.78" allow="rail_urban" oneway="1"/>
    <type id="railway.preserved" priority="16" numLanes="1" speed="27.78" allow="rail" oneway="1"/>
    <type id="railway.rail" priority="20" numLanes="1" speed="44.44" allow="rail" oneway="1"/>
    <type id="railway.subway" priority="18" numLanes="1" speed="27.78" allow="rail_urban" oneway="1"/>
    <type id="railway.tram" priority="17" numLanes="1" speed="13.89" allow="tram" oneway="1"/>

    <edge id=":10026782126_0" function="internal">
        <lane id=":10026782126_0_0" index="0" allow="pedestrian delivery bicycle" speed="5.56" length="5.02" shape="4349.97,6291.71 4348.48,6291.82 4347.45,6291.93 4346.43,6291.89 4345.00,6291.55"/>
    </edge>
    <edge id=":10026782126_1" function="internal">
        <lane id=":10026782126_1_0" index="0" allow="pedestrian delivery bicycle" speed="3.65" length="4.67" shape="4349.97,6291.71 4348.75,6290.94 4348.33,6290.16 4348.70,6289.34 4349.88,6288.51"/>
    </edge>
    <edge id=":10026782126_2" function="internal">
        <lane id=":10026782126_2_0" index="0" allow="pedestrian delivery bicycle" speed="5.56" length="5.00" shape="4344.94,6288.18 4346.36,6288.55 4347.37,6288.64 4348.40,6288.59 4349.88,6288.51"/>
    </edge>
    <edge id=":10026782126_3" function="internal">
        <lane id=":10026782126_3_0" index="0" allow="pedestrian delivery bicycle" speed="3.72" length="4.92" shape="4344.94,6288.18 4346.22,6288.99 4346.66,6289.83 4346.25,6290.68 4345.00,6291.55"/>
    </edge>
    <edge id=":1085521723_0" function="internal">
        <lane id=":1085521723_0_0" index="0" allow="pedestrian bicycle" speed="2.78" length="2.92" width="2.00" shape="6813.16,7102.63 6813.64,7101.87 6814.14,7101.61 6814.64,7101.85 6815.16,7102.59"/>
    </edge>
    <edge id=":1111434170_0" function="internal">
        <lane id=":1111434170_0_0" index="0" disallow="tram rail_urban rail rail_electric rail_fast ship" speed="13.89" length="4.97" shape="6762.29,7035.67 6761.47,7030.77"/>
    </edge>
    <edge id=":1111434170_1" function="internal">
        <lane id=":1111434170_1_0" index="0" disallow="tram rail_urban rail rail_electric rail_fast ship" speed="3.65" length="2.34" shape="6762.29,7035.67 6762.89,7034.35 6763.61,7033.83"/>
    </edge>
    <edge id=":1111434170_4" function="internal">
        <lane id=":1111434170_4_0" index="0" disallow="tram rail_urban rail rail_electric rail_fast ship" speed="3.65" length="2.34" shape="6763.61,7033.83 6764.47,7034.09 6765.45,7035.15"/>
    </edge>
    <edge id=":1111434170_2" function="internal">
        <lane id=":1111434170_2_0" index="0" disallow="tram rail_urban rail rail_electric rail_fast ship" speed="13.89" length="4.99" shape="6764.63,7030.23 6765.45,7035.15"/>
    </edge>
    <edge id=":1111434170_3" function="internal">
        <lane id=":1111434170_3_0" index="0" disallow="tram rail_urban rail rail_electric rail_fast ship" speed="3.65" length="2.34" shape="6764.63,7030.23 6764.04,7031.54 6763.32,7032.07"/>
    </edge>
    <edge id=":1111434170_5" function="internal">
        <lane id=":1111434170_5_0" index="0" disallow="tram rail_urban rail rail_electric rail_fast ship" speed="3.65" length="2.34" shape="6763.32,7032.07 6762.46,7031.81 6761.47,7030.77"/>
    </edge>
    <edge id=":1133028695_0" function="internal">
        <lane id=":1133028695_0_0" index="0" allow="pedestrian motorcycle moped bicycle" speed="5.56" length="8.25" shape="3936.69,3847.69 3935.06,3849.32 3934.51,3850.91 3934.14,3852.69 3933.05,3854.87"/>
    </edge>
    <edge id=":1133028695_1" function="internal">
        <lane id=":1133028695_1_0" index="0" allow="pedestrian motorcycle moped bicycle" speed="5.56" length="11.28" shape="3936.69,3847.69 3934.31,3848.97 3931.72,3849.64 3928.90,3849.69 3925.87,3849.15"/>
    </edge>
    <edge id=":1133028695_2" function="internal">
        <lane id=":1133028695_2_0" index="0" allow="pedestrian motorcycle moped bicycle" speed="3.65" length="4.67" shape="3936.69,3847.69 3935.25,3847.72 3934.47,3847.29 3934.34,3846.41 3934.87,3845.07"/>
    </edge>
    <edge id=":1133028695_3" function="internal">
        <lane id=":1133028695_3_0" index="0" allow="pedestrian motorcycle moped bicycle" speed="5.56" length="8.49" shape="3926.70,3846.06 3929.03,3846.49 3931.17,3846.47 3933.11,3845.99 3934.87,3845.07"/>
    </edge>
    <edge id=":1133028695_4" function="internal">
        <lane id=":1133028695_4_0" index="0" allow="pedestrian motorcycle moped bicycle" speed="5.56" length="13.38" shape="3926.70,3846.06 3931.06,3847.68 3933.58,3849.70 3934.24,3852.09 3933.05,3854.87"/>
    </edge>
    <edge id=":1133028695_5" function="internal">
        <lane id=":1133028695_5_0" index="0" allow="pedestrian motorcycle moped bicycle" speed="3.65" length="4.67" shape="3926.70,3846.06 3927.65,3847.14 3927.83,3848.02 3927.23,3848.69 3925.87,3849.15"/>
    </edge>
    <edge id=":1133028695_6" function="internal">
        <lane id=":1133028695_6_0" index="0" allow="pedestrian motorcycle moped bicycle" speed="5.56" length="8.01" shape="3929.34,3854.57 3930.13,3852.82 3929.81,3851.34 3928.39,3850.11 3925.87,3849.15"/>
    </edge>
    <edge id=":1133028695_7" function="internal">
        <lane id=":1133028695_7_0" index="0" allow="pedestrian motorcycle moped bicycle" speed="5.56" length="11.17" shape="3929.34,3854.57 3930.85,3851.77 3931.65,3849.36 3932.68,3847.18 3934.87,3845.07"/>
    </edge>
    <edge id=":1133028695_8" function="internal">
        <lane id=":1133028695_8_0" index="0" allow="pedestrian motorcycle moped bicycle" speed="3.84" length="5.43" shape="3929.34,3854.57 3930.38,3853.25 3931.35,3852.87 3932.24,3853.41 3933.05,3854.87"/>
    </edge>
    <edge id=":1133028731_0" function="internal">
        <lane id=":1133028731_0_0" index="0" allow="pedestrian motorcycle moped bicycle" speed="5.56" length="15.10" shape="3492.36,3633.53 3479.60,3625.45"/>
    </edge>
    <edge id=":1133028731_1" function="internal">
        <lane id=":1133028731_1_0" index="0" allow="pedestrian motorcycle moped bicycle" speed="5.56" length="15.34" shape="3492.36,3633.53 3489.80,3631.26 3488.17,3628.22 3487.47,3624.41 3487.69,3619.82"/>
    </edge>
    <edge id=":1133028731_2" function="internal">
        <lane id=":1133028731_2_0" index="0" allow="pedestrian motorcycle moped bicycle" speed="3.65" length="4.67" shape="3492.36,3633.53 3491.76,3632.21 3491.84,3631.32 3492.61,3630.85 3494.05,3630.81"/>
    </edge>
    <edge id=":1133028731_3" function="internal">
        <lane id=":1133028731_3_0" index="0" allow="pedestrian motorcycle moped bicycle" speed="5.56" length="11.65" shape="3490.86,3620.25 3490.65,3623.87 3491.11,3626.84 3492.25,3629.15 3494.05,3630.81"/>
    </edge>
    <edge id=":1133028731_4" function="internal">
        <lane id=":1133028731_4_0" index="0" allow="pedestrian motorcycle moped bicycle" speed="5.56" length="16.21" shape="3490.86,3620.25 3489.57,3624.85 3487.26,3627.25 3483.94,3627.45 3479.60,3625.45"/>
    </edge>
    <edge id=":1133028731_5" function="internal">
        <lane id=":1133028731_5_0" index="0" allow="pedestrian motorcycle moped bicycle" speed="3.65" length="4.67" shape="3490.86,3620.25 3489.90,3621.33 3489.06,3621.62 3488.32,3621.12 3487.69,3619.82"/>
    </edge>
    <edge id=":1133028731_6" function="internal">
        <lane id=":1133028731_6_0" index="0" allow="pedestrian motorcycle moped bicycle" speed="5.56" length="9.16" shape="3481.33,3622.75 3483.78,3623.88 3485.66,3623.77 3486.96,3622.42 3487.69,3619.82"/>
    </edge>
    <edge id=":1133028731_7" function="internal">
        <lane id=":1133028731_7_0" index="0" allow="pedestrian motorcycle moped bicycle" speed="5.56" length="15.06" shape="3481.33,3622.75 3494.05,3630.81"/>
    </edge>
    <edge id=":1133028731_8" function="internal">
        <lane id=":1133028731_8_0" index="0" allow="pedestrian motorcycle moped bicycle" speed="3.65" length="4.67" shape="3481.33,3622.75 3481.91,3624.07 3481.81,3624.96 3481.04,3625.42 3479.60,3625.45"/>
    </edge>
    <edge id=":1133028911_0" function="internal">
        <lane id=":1133028911_0_0" index="0" allow="pedestrian motorcycle moped bicycle" speed="3.65" length="4.67" shape="2296.22,2711.05 2296.17,2709.61 2296.59,2708.82 2297.48,2708.68 2298.82,2709.19"/>
    </edge>
    <edge id=":1133037299_0" function="internal">
        <lane id=":1133037299_0_0" index="0" disallow="tram rail_urban rail rail_electric rail_fast ship" speed="13.89" length="15.47" shape="3604.88,4313.32 3597.86,4299.53"/>
    </edge>
    <edge id=":1133037299_1" function="internal">
        <lane id=":1133037299_1_0" index="0" disallow="tram rail_urban rail rail_electric rail_fast ship" speed="10.42" length="5.67" shape="3604.88,4313.32 3603.82,4310.12 3603.87,4307.82"/>
    </edge>
    <edge id=":1133037299_2" function="internal">
        <lane id=":1133037299_2_0" index="0" disallow="tram rail_urban rail rail_electric rail_fast ship" speed="3.65" length="2.34" shape="3604.88,4313.32 3605.02,4311.89 3605.53,4311.16"/>
    </edge>
    <edge id=":1133037299_9" function="internal">
        <lane id=":1133037299_9_0" index="0" disallow="tram rail_urban rail rail_electric rail_fast ship" speed="10.42" length="10.04" shape="3603.87,4307.82 3603.90,4306.59 3605.13,4302.76 3607.51,4298.60"/>
    </edge>
    <edge id=":1133037299_10" function="internal">
        <lane id=":1133037299_10_0" index="0" disallow="tram rail_urban rail rail_electric rail_fast ship" speed="3.65" length="2.34" shape="3605.53,4311.16 3606.43,4311.13 3607.70,4311.81"/>
    </edge>
    <edge id=":1133037299_3" function="internal">
        <lane id=":1133037299_3_0" index="0" disallow="tram rail_urban rail rail_electric rail_fast ship" speed="9.24" length="12.23" shape="3610.15,4300.41 3608.20,4303.75 3607.14,4306.77 3606.97,4309.45 3607.70,4311.81"/>
    </edge>
    <edge id=":1133037299_4" function="internal">
        <lane id=":1133037299_4_0" index="0" disallow="tram rail_urban rail rail_electric rail_fast ship" speed="7.41" length="16.73" shape="3610.15,4300.41 3606.80,4304.13 3603.63,4305.23 3600.65,4303.70 3597.86,4299.53"/>
    </edge>
    <edge id=":1133037299_5" function="internal">
        <lane id=":1133037299_5_0" index="0" disallow="tram rail_urban rail rail_electric rail_fast ship" speed="3.65" length="4.67" shape="3610.15,4300.41 3608.81,4300.95 3607.93,4300.83 3607.49,4300.04 3607.51,4298.60"/>
    </edge>
    <edge id=":1133037299_6" function="internal">
        <lane id=":1133037299_6_0" index="0" disallow="tram rail_urban rail rail_electric rail_fast ship" speed="5.68" length="9.23" shape="3600.73,4298.12 3602.27,4300.42 3603.91,4301.26 3605.66,4300.66 3607.51,4298.60"/>
    </edge>
    <edge id=":1133037299_7" function="internal">
        <lane id=":1133037299_7_0" index="0" disallow="tram rail_urban rail rail_electric rail_fast ship" speed="13.89" length="15.36" shape="3600.73,4298.12 3607.70,4311.81"/>
    </edge>
    <edge id=":1133037299_8" function="internal">
        <lane id=":1133037299_8_0" index="0" disallow="tram rail_urban rail rail_electric rail_fast ship" speed="3.65" length="2.34" shape="3600.73,4298.12 3600.54,4299.55 3600.00,4300.26"/>
    </edge>
    <edge id=":1133037299_11" function="internal">
        <lane id=":1133037299_11_0" index="0" disallow="tram rail_urban rail rail_electric rail_fast ship" speed="3.65" length="2.34" shape="3600.00,4300.26 3599.11,4300.26 3597.86,4299.53"/>
    </edge>
    <edge id=":1133037332_0" function="internal">
        <lane id=":1133037332_0_0" index="0" disallow="tram rail_urban rail rail_electric rail_fast ship" speed="3.65" length="4.67" shape="3787.08,4370.49 3788.53,4370.49 3789.30,4370.93 3789.41,4371.82 3788.85,4373.15"/>
    </edge>
    <edge id=":1172919709_0" function="internal">
        <lane id=":1172919709_0_0" index="0" allow="pedestrian delivery bicycle" speed="3.65" length="4.67" shape="6814.04,6938.18 6812.61,6938.32 6811.79,6937.96 6811.59,6937.09 6812.01,6935.71"/>
    </edge>
    <edge id=":1210235482_0" function="internal">
        <lane id=":1210235482_0_0" index="0" disallow="tram rail_urban rail rail_electric rail_fast ship" speed="5.56" length="9.04" shape="7366.94,7003.57 7366.30,7005.70 7366.55,7007.70 7367.69,7009.54 7369.71,7011.24"/>
    </edge>
    <edge id=":1210235482_1" function="internal">
        <lane id=":1210235482_1_0" index="0" disallow="tram rail_urban rail rail_electric rail_fast ship" speed="8.33" length="10.95" shape="7366.94,7003.57 7365.62,7006.39 7364.75,7008.58 7364.07,7010.84 7363.29,7013.86"/>
    </edge>
    <edge id=":1210235482_2" function="internal">
        <lane id=":1210235482_2_0" index="0" disallow="tram rail_urban rail rail_electric rail_fast ship" speed="3.65" length="4.67" shape="7366.94,7003.57 7365.70,7004.29 7364.80,7004.30 7364.26,7003.59 7364.07,7002.16"/>
    </edge>
    <edge id=":1210235482_3" function="internal">
        <lane id=":1210235482_3_0" index="0" disallow="tram rail_urban rail rail_electric rail_fast ship" speed="8.33" length="11.61" shape="7360.19,7013.07 7361.01,7009.95 7361.77,7007.48 7362.71,7005.08 7364.07,7002.16"/>
    </edge>
    <edge id=":1210235482_4" function="internal">
        <lane id=":1210235482_4_0" index="0" disallow="tram rail_urban rail rail_electric rail_fast ship" speed="5.56" length="12.04" shape="7360.19,7013.07 7361.45,7010.35 7363.46,7009.14 7366.21,7009.44 7369.71,7011.24"/>
    </edge>
    <edge id=":1210235482_5" function="internal">
        <lane id=":1210235482_5_0" index="0" disallow="tram rail_urban rail rail_electric rail_fast ship" speed="3.65" length="4.67" shape="7360.19,7013.07 7361.26,7012.10 7362.13,7011.91 7362.81,7012.50 7363.29,7013.86"/>
    </edge>
    <edge id=":1212525594_0" function="internal">
        <lane id=":1212525594_0_0" index="0" allow="pedestrian delivery bicycle" speed="3.65" length="4.67" shape="7101.66,6818.99 7100.96,6817.73 7100.97,6816.83 7101.69,6816.31 7103.12,6816.14"/>
    </edge>
    <edge id=":1212525616_0" function="internal">
        <lane id=":1212525616_0_0" index="0" allow="pedestrian delivery bicycle" speed="3.65" length="4.67" shape="7098.58,6824.72 7097.85,6823.48 7097.84,6822.58 7098.55,6822.04 7099.98,6821.84"/>
    </edge>
    <edge id=":1221842805_0" function="internal">
        <lane id=":1221842805_0_0" index="0" disallow="tram rail_urban rail rail_electric rail_fast ship" speed="3.65" length="4.67" shape="7350.41,7596.49 7349.95,7597.85 7349.29,7598.45 7348.41,7598.28 7347.32,7597.33"/>
    </edge>
    <edge id=":1226797154_0" function="internal">
        <lane id=":1226797154_0_0" index="0" allow="rail rail_electric rail_fast" speed="16.67" length="2.96" shape="6819.97,7277.99 6820.24,7280.94"/>
    </edge>
    <edge id=":1226797167_0" function="internal">
        <lane id=":1226797167_0_0" index="0" allow="rail rail_electric rail_fast" speed="33.33" length="2.89" shape="6742.26,6719.30 6742.69,6722.15"/>
    </edge>
    <edge id=":1226797175_0" function="internal">
        <lane id=":1226797175_0_0" index="0" allow="rail rail_electric rail_fast" speed="33.33" length="3.07" shape="6722.54,6627.09 6722.12,6624.05"/>
    </edge>
    <edge id=":1226797175_1" function="internal">
        <lane id=":1226797175_1_0" index="0" allow="rail rail_electric rail_fast" speed="38.89" length="2.97" shape="6722.57,6626.99 6722.12,6624.05"/>
    </edge>
    <edge id=":1226797191_0" function="internal">
        <lane id=":1226797191_0_0" index="0" allow="rail rail_electric rail_fast" speed="16.67" length="2.97" shape="6823.61,7183.94 6824.09,7186.87"/>
    </edge>
    <edge id=":1226797194_0" function="internal">
        <lane id=":1226797194_0_0" index="0" allow="rail rail_electric rail_fast" speed="30.55" length="0.22" shape="6844.28,7275.99 6844.24,7275.78"/>
    </edge>
    <edge id=":1226797288_0" function="internal">
        <lane id=":1226797288_0_0" index="0" allow="rail rail_electric rail_fast" speed="30.55" length="40.28" shape="6754.79,6766.94 6761.04,6806.72"/>
    </edge>
    <edge id=":1226797288_1" function="internal">
        <lane id=":1226797288_1_0" index="0" allow="rail rail_electric rail_fast" speed="30.55" length="30.75" shape="6753.91,6776.82 6761.04,6806.72"/>
    </edge>
    <edge id=":1226797302_0" function="internal">
        <lane id=":1226797302_0_0" index="0" allow="rail rail_electric rail_fast" speed="38.89" length="51.06" shape="6743.29,6726.67 6745.04,6735.88 6748.35,6751.69 6751.76,6767.47 6753.86,6776.62"/>
    </edge>
    <edge id=":1226797302_1" function="internal">
        <lane id=":1226797302_1_0" index="0" allow="rail rail_electric rail_fast" speed="33.33" length="60.56" shape="6743.29,6726.67 6753.01,6786.45"/>
    </edge>
    <edge id=":1226797319_0" function="internal">
        <lane id=":1226797319_0_0" index="0" allow="rail rail_electric rail_fast" speed="22.22" length="3.04" shape="6813.63,7221.08 6813.15,7218.08"/>
    </edge>
    <edge id=":1226797357_0" function="internal">
        <lane id=":1226797357_0_0" index="0" allow="rail rail_electric rail_fast" speed="33.33" length="0.30" shape="6810.88,7201.90 6810.84,7201.60"/>
    </edge>
    <edge id=":1226797394_0" function="internal">
        <lane id=":1226797394_0_0" index="0" allow="rail rail_electric rail_fast" speed="38.89" length="63.31" shape="6806.12,7160.92 6799.02,7098.01"/>
    </edge>
    <edge id=":1226797394_1" function="internal">
        <lane id=":1226797394_1_0" index="0" allow="rail rail_electric rail_fast" speed="33.33" length="63.28" shape="6809.39,7160.43 6799.02,7098.01"/>
    </edge>
    <edge id=":1226797544_0" function="internal">
        <lane id=":1226797544_0_0" index="0" allow="rail rail_electric rail_fast" speed="33.33" length="0.29" shape="6954.94,8046.57 6954.98,8046.86"/>
    </edge>
    <edge id=":1227157670_0" function="internal">
        <lane id=":1227157670_0_0" index="0" allow="pedestrian delivery bicycle" speed="3.65" length="4.67" shape="6918.28,7081.84 6917.94,7080.44 6918.19,7079.58 6919.02,7079.26 6920.45,7079.49"/>
    </edge>
    <edge id=":1231098925_0" function="internal">
        <lane id=":1231098925_0_0" index="0" disallow="tram rail_urban rail rail_electric rail_fast ship" speed="8.33" length="14.25" shape="7593.84,7066.68 7579.78,7069.03"/>
    </edge>
    <edge id=":1231098925_1" function="internal">
        <lane id=":1231098925_1_0" index="0" disallow="tram rail_urban rail rail_electric rail_fast ship" speed="7.95" length="14.31" shape="7593.84,7066.68 7589.90,7066.71 7586.94,7065.46 7584.94,7062.94 7583.92,7059.13"/>
    </edge>
    <edge id=":1231098925_2" function="internal">
        <lane id=":1231098925_2_0" index="0" disallow="tram rail_urban rail rail_electric rail_fast ship" speed="3.65" length="4.67" shape="7593.84,7066.68 7592.53,7066.07 7592.02,7065.34 7592.29,7064.49 7593.36,7063.52"/>
    </edge>
    <edge id=":1231098925_3" function="internal">
        <lane id=":1231098925_3_0" index="0" disallow="tram rail_urban rail rail_electric rail_fast ship" speed="6.44" length="9.03" shape="7587.10,7058.75 7587.74,7061.15 7589.00,7062.75 7590.87,7063.54 7593.36,7063.52"/>
    </edge>
    <edge id=":1231098925_4" function="internal">
        <lane id=":1231098925_4_0" index="0" disallow="tram rail_urban rail rail_electric rail_fast ship" speed="8.19" length="14.20" shape="7587.10,7058.75 7587.04,7062.67 7585.80,7065.69 7583.38,7067.81 7579.78,7069.03"/>
    </edge>
    <edge id=":1231098925_5" function="internal">
        <lane id=":1231098925_5_0" index="0" disallow="tram rail_urban rail rail_electric rail_fast ship" speed="3.65" length="4.67" shape="7587.10,7058.75 7586.45,7060.04 7585.70,7060.53 7584.86,7060.23 7583.92,7059.13"/>
    </edge>
    <edge id=":1231098925_6" function="internal">
        <lane id=":1231098925_6_0" index="0" disallow="tram rail_urban rail rail_electric rail_fast ship" speed="6.73" length="9.26" shape="7579.20,7065.88 7581.53,7065.09 7583.09,7063.70 7583.89,7061.71 7583.92,7059.13"/>
    </edge>
    <edge id=":1231098925_7" function="internal">
        <lane id=":1231098925_7_0" index="0" disallow="tram rail_urban rail rail_electric rail_fast ship" speed="8.33" length="14.35" shape="7579.20,7065.88 7593.36,7063.52"/>
    </edge>
    <edge id=":1231098925_8" function="internal">
        <lane id=":1231098925_8_0" index="0" disallow="tram rail_urban rail rail_electric rail_fast ship" speed="3.65" length="4.67" shape="7579.20,7065.88 7580.53,7066.45 7581.06,7067.16 7580.82,7068.02 7579.78,7069.03"/>
    </edge>
    <edge id=":1231098949_0" function="internal">
        <lane id=":1231098949_0_0" index="0" disallow="tram rail_urban rail rail_electric rail_fast ship" speed="3.65" length="4.67" shape="7568.73,6949.65 7569.37,6948.36 7570.11,6947.86 7570.96,6948.15 7571.90,6949.24"/>
    </edge>
    <edge id=":1231543818_0" function="internal">
        <lane id=":1231543818_0_0" index="0" allow="pedestrian delivery bicycle" speed="3.65" length="4.67" shape="7726.09,7420.57 7725.58,7421.92 7724.89,7422.49 7724.02,7422.28 7722.97,7421.29"/>
    </edge>
    <edge id=":1231543830_0" function="internal">
        <lane id=":1231543830_0_0" index="0" allow="pedestrian delivery bicycle" speed="3.65" length="4.67" shape="7758.50,7204.99 7759.84,7205.52 7760.40,7206.22 7760.17,7207.08 7759.17,7208.12"/>
    </edge>
    <edge id=":1231543834_0" function="internal">
        <lane id=":1231543834_0_0" index="0" allow="pedestrian delivery bicycle" speed="6.95" length="0.35" shape="7647.84,7230.62 7647.50,7230.70"/>
    </edge>
    <edge id=":1231543834_1" function="internal">
        <lane id=":1231543834_1_0" index="0" allow="pedestrian delivery bicycle" speed="6.95" length="0.12" shape="7646.94,7227.54 7647.06,7227.52"/>
    </edge>
    <edge id=":1231543834_2" function="internal">
        <lane id=":1231543834_2_0" index="0" disallow="tram rail_urban rail rail_electric rail_fast ship" speed="3.65" length="2.34" shape="7646.94,7227.54 7648.27,7228.12 7648.80,7228.84"/>
    </edge>
    <edge id=":1231543834_3" function="internal">
        <lane id=":1231543834_3_0" index="0" disallow="tram rail_urban rail rail_electric rail_fast ship" speed="3.65" length="2.34" shape="7648.80,7228.84 7648.54,7229.70 7647.50,7230.70"/>
    </edge>
    <edge id=":1231543837_0" function="internal">
        <lane id=":1231543837_0_0" index="0" allow="pedestrian delivery bicycle" speed="5.56" length="9.40" shape="7719.49,7406.25 7717.36,7397.10"/>
    </edge>
    <edge id=":1231543837_1" function="internal">
        <lane id=":1231543837_1_0" index="0" allow="pedestrian delivery bicycle" speed="5.56" length="10.33" shape="7719.49,7406.25 7719.24,7403.42 7719.98,7401.22 7721.69,7399.65 7724.38,7398.71"/>
    </edge>
    <edge id=":1231543837_2" function="internal">
        <lane id=":1231543837_2_0" index="0" allow="pedestrian delivery bicycle" speed="3.65" length="4.67" shape="7719.49,7406.25 7719.99,7404.90 7720.68,7404.33 7721.55,7404.54 7722.60,7405.53"/>
    </edge>
    <edge id=":1231543837_3" function="internal">
        <lane id=":1231543837_3_0" index="0" allow="pedestrian delivery bicycle" speed="5.00" length="5.04" shape="7724.99,7401.85 7723.68,7402.31 7722.84,7403.07 7722.48,7404.15 7722.60,7405.53"/>
    </edge>
    <edge id=":1231543837_4" function="internal">
        <lane id=":1231543837_4_0" index="0" allow="pedestrian delivery bicycle" speed="5.56" length="10.17" shape="7724.99,7401.85 7722.17,7402.01 7719.96,7401.27 7718.36,7399.63 7717.36,7397.10"/>
    </edge>
    <edge id=":1231543837_5" function="internal">
        <lane id=":1231543837_5_0" index="0" allow="pedestrian delivery bicycle" speed="3.65" length="4.67" shape="7724.99,7401.85 7723.66,7401.30 7723.11,7400.59 7723.35,7399.73 7724.38,7398.71"/>
    </edge>
    <edge id=":1231543837_6" function="internal">
        <lane id=":1231543837_6_0" index="0" allow="pedestrian delivery bicycle" speed="5.16" length="5.14" shape="7720.48,7396.37 7720.98,7397.63 7721.80,7398.44 7722.93,7398.80 7724.38,7398.71"/>
    </edge>
    <edge id=":1231543837_7" function="internal">
        <lane id=":1231543837_7_0" index="0" allow="pedestrian delivery bicycle" speed="5.56" length="9.40" shape="7720.48,7396.37 7722.60,7405.53"/>
    </edge>
    <edge id=":1231543837_8" function="internal">