<?xml version="1.0" encoding="UTF-8"?>

<!-- generated on 10/03/22 20:12:05 by Eclipse SUMO netedit Version 1.8.0
<configuration xmlns:xsi="http://www.w3.org/2001/XMLSchema-instance" xsi:noNamespaceSchemaLocation="http://sumo.dlr.de/xsd/netconvertConfiguration.xsd">

    <output>
        <output-file value="D:\veins\sumo-1.8.0\tools\straight\straight.net.xml"/>
    </output>

    <processing>
        <offset.disable-normalization value="true"/>
    </processing>

    <junctions>
        <no-turnarounds value="true"/>
    </junctions>

    <report>
        <aggregate-warnings value="5"/>
    </report>

</configuration>
-->

<net version="1.6" junctionCornerDetail="5" limitTurnSpeed="5.50" xmlns:xsi="http://www.w3.org/2001/XMLSchema-instance" xsi:noNamespaceSchemaLocation="http://sumo.dlr.de/xsd/net_file.xsd">

    <location netOffset="0.00,0.00" convBoundary="-380.69,-169.64,886.00,-169.64" origBoundary="10000000000.00,10000000000.00,-10000000000.00,-10000000000.00" projParameter="!"/>

    <edge id=":gneJ1_0" function="internal">
        <lane id=":gneJ1_0_0" index="0" speed="13.89" length="0.10" shape="265.00,-168.04 265.00,-168.04"/>
    </edge>
    <edge id=":gneJ1_1" function="internal">
        <lane id=":gneJ1_1_0" index="0" speed="13.89" length="0.10" shape="265.00,-171.24 265.00,-171.24"/>
    </edge>

    <edge id="gneE0" from="gneJ0" to="gneJ1" priority="-1">
        <lane id="gneE0_0" index="0" speed="13.89" length="645.69" shape="-380.69,-171.24 265.00,-171.24"/>
    </edge>
    <edge id="gneE1" from="gneJ1" to="gneJ2" priority="-1">
        <lane id="gneE1_0" index="0" speed="13.89" length="621.00" shape="265.00,-171.24 886.00,-171.24"/>
    </edge>
    <edge id="gneE2" from="gneJ2" to="gneJ1" priority="-1">
        <lane id="gneE2_0" index="0" speed="13.89" length="621.00" shape="886.00,-168.04 265.00,-168.04"/>
    </edge>
    <edge id="gneE4" from="gneJ1" to="gneJ0" priority="-1">
        <lane id="gneE4_0" index="0" speed="13.89" length="645.69" shape="265.00,-168.04 -380.69,-168.04"/>
    </edge>

    <junction id="gneJ0" type="dead_end" x="-380.69" y="-169.64" incLanes="gneE4_0" intLanes="" shape="-380.69,-169.64 -380.69,-166.44 -380.69,-169.64"/>
    <junction id="gneJ1" type="priority" x="265.00" y="-169.64" incLanes="gneE2_0 gneE0_0" intLanes=":gneJ1_0_0 :gneJ1_1_0" shape="265.00,-166.44 265.00,-172.84 265.00,-166.44">
        <request index="0" response="00" foes="00" cont="0"/>
        <request index="1" response="00" foes="00" cont="0"/>
    </junction>
    <junction id="gneJ2" type="dead_end" x="886.00" y="-169.64" incLanes="gneE1_0" intLanes="" shape="886.00,-169.64 886.00,-172.84 886.00,-169.64"/>

    <connection from="gneE0" to="gneE1" fromLane="0" toLane="0" via=":gneJ1_1_0" dir="s" state="M"/>
    <connection from="gneE2" to="gneE4" fromLane="0" toLane="0" via=":gneJ1_0_0" dir="s" state="M"/>

    <connection from=":gneJ1_0" to="gneE4" fromLane="0" toLane="0" dir="s" state="M"/>
    <connection from=":gneJ1_1" to="gneE1" fromLane="0" toLane="0" dir="s" state="M"/>

</net>
